&HEAD	CHID='E_GlassOldLinearNominal15KW_s0', TITLE='FDS Analysis for Optimizing on Cone Calorimeter Data' /
&TIME	T_end=6000.0	DT=1.00	WALL_INCREMENT=1.0 /
&MESH	IJK=3,3,3	XB=-0.1524,0.1524,-0.1524,0.1524,0.0000,0.3048 /
&MISC	SOLID_PHASE_ONLY=.TRUE., Y_O2_INFTY=0.21, TMPA=25 /
&DUMP	DT_DEVC=1 DT_HRR=1 /
&SPEC	ID='OFF_GAS' /
&VENT	XB=-0.0508,0.0508,-0.0508,0.0508,0.0,0.0, SURF_ID='AR' /
&SURF     ID='AR',COLOR='RED',STRETCH_FACTOR=1.,CELL_SIZE_FACTOR=1.,HEAT_TRANSFER_COEFFICIENT=15.00
		MATL_ID(1,1:1)='PHASE_0'
		MATL_MASS_FRACTION(1,1:1)=1.0000
		EXTERNAL_FLUX=15.000000
		THICKNESS=0.008000
		BACKING=INSULATED,TMP_BACK=25.00,TMP_INNER=25.00 /
&MATL	ID='PHASE_0'
		EMISSIVITY=9.400000e-01
		ABSORPTION_COEFFICIENT=1.000000e+04
		DENSITY=1683.000000
		CONDUCTIVITY_RAMP='KRAMP_PHASE_0'
		SPECIFIC_HEAT_RAMP='CPRAMP_PHASE_0'
		N_REACTIONS=1
		A=2.344000e+12
		E=1.810000e+05
		N_S=1.000000
		N_O2=0.000000e+00
		HEAT_OF_REACTION=1.000000e+02
		NU_SPEC=0.266191
		SPEC_ID='OFF_GAS'
		NU_MATL=0.733809
		MATL_ID='PHASE_1'
/
&RAMP	ID='KRAMP_PHASE_0',T=   0,F=3.240256e-01/
&RAMP	ID='KRAMP_PHASE_0',T=  10,F=3.244662e-01/
&RAMP	ID='KRAMP_PHASE_0',T=  20,F=3.249067e-01/
&RAMP	ID='KRAMP_PHASE_0',T=  30,F=3.253471e-01/
&RAMP	ID='KRAMP_PHASE_0',T=  40,F=3.257876e-01/
&RAMP	ID='KRAMP_PHASE_0',T=  50,F=3.262281e-01/
&RAMP	ID='KRAMP_PHASE_0',T=  60,F=3.266687e-01/
&RAMP	ID='KRAMP_PHASE_0',T=  70,F=3.271092e-01/
&RAMP	ID='KRAMP_PHASE_0',T=  80,F=3.275497e-01/
&RAMP	ID='KRAMP_PHASE_0',T=  90,F=3.279901e-01/
&RAMP	ID='KRAMP_PHASE_0',T= 100,F=3.284306e-01/
&RAMP	ID='KRAMP_PHASE_0',T= 110,F=3.288712e-01/
&RAMP	ID='KRAMP_PHASE_0',T= 120,F=3.293117e-01/
&RAMP	ID='KRAMP_PHASE_0',T= 130,F=3.297522e-01/
&RAMP	ID='KRAMP_PHASE_0',T= 140,F=3.301926e-01/
&RAMP	ID='KRAMP_PHASE_0',T= 150,F=3.306331e-01/
&RAMP	ID='KRAMP_PHASE_0',T= 160,F=3.310736e-01/
&RAMP	ID='KRAMP_PHASE_0',T= 170,F=3.315142e-01/
&RAMP	ID='KRAMP_PHASE_0',T= 180,F=3.319547e-01/
&RAMP	ID='KRAMP_PHASE_0',T= 190,F=3.323951e-01/
! ... 181 like lines cut
&RAMP	ID='CPRAMP_PHASE_0',T=   0,F=1.092340e+00/
&RAMP	ID='CPRAMP_PHASE_0',T=  10,F=1.092792e+00/
&RAMP	ID='CPRAMP_PHASE_0',T=  20,F=1.093244e+00/
&RAMP	ID='CPRAMP_PHASE_0',T=  30,F=1.093696e+00/
&RAMP	ID='CPRAMP_PHASE_0',T=  40,F=1.094148e+00/
&RAMP	ID='CPRAMP_PHASE_0',T=  50,F=1.094600e+00/
&RAMP	ID='CPRAMP_PHASE_0',T=  60,F=1.095052e+00/
&RAMP	ID='CPRAMP_PHASE_0',T=  70,F=1.095504e+00/
&RAMP	ID='CPRAMP_PHASE_0',T=  80,F=1.095956e+00/
&RAMP	ID='CPRAMP_PHASE_0',T=  90,F=1.096408e+00/
&RAMP	ID='CPRAMP_PHASE_0',T= 100,F=1.096860e+00/
&RAMP	ID='CPRAMP_PHASE_0',T= 110,F=1.097312e+00/
&RAMP	ID='CPRAMP_PHASE_0',T= 120,F=1.097764e+00/
&RAMP	ID='CPRAMP_PHASE_0',T= 130,F=1.098216e+00/
&RAMP	ID='CPRAMP_PHASE_0',T= 140,F=1.098668e+00/
&RAMP	ID='CPRAMP_PHASE_0',T= 150,F=1.099120e+00/
&RAMP	ID='CPRAMP_PHASE_0',T= 160,F=1.099572e+00/
&RAMP	ID='CPRAMP_PHASE_0',T= 170,F=1.100024e+00/
&RAMP	ID='CPRAMP_PHASE_0',T= 180,F=1.100476e+00/
&RAMP	ID='CPRAMP_PHASE_0',T= 190,F=1.100928e+00/
! ... 181 like lines cut
&MATL	ID='PHASE_1'
		EMISSIVITY=9.400000e-01
		ABSORPTION_COEFFICIENT=1.000000e+08
		DENSITY=1235.000000
		CONDUCTIVITY_RAMP='KRAMP_PHASE_1'
		SPECIFIC_HEAT_RAMP='CPRAMP_PHASE_1'
/
&RAMP	ID='KRAMP_PHASE_1',T=   0,F=1.721590e-01/
&RAMP	ID='KRAMP_PHASE_1',T=  10,F=1.749890e-01/
&RAMP	ID='KRAMP_PHASE_1',T=  20,F=1.778190e-01/
&RAMP	ID='KRAMP_PHASE_1',T=  30,F=1.806490e-01/
&RAMP	ID='KRAMP_PHASE_1',T=  40,F=1.834790e-01/
&RAMP	ID='KRAMP_PHASE_1',T=  50,F=1.863090e-01/
&RAMP	ID='KRAMP_PHASE_1',T=  60,F=1.891390e-01/
&RAMP	ID='KRAMP_PHASE_1',T=  70,F=1.919690e-01/
&RAMP	ID='KRAMP_PHASE_1',T=  80,F=1.947990e-01/
&RAMP	ID='KRAMP_PHASE_1',T=  90,F=1.976290e-01/
&RAMP	ID='KRAMP_PHASE_1',T= 100,F=2.004590e-01/
&RAMP	ID='KRAMP_PHASE_1',T= 110,F=2.032890e-01/
&RAMP	ID='KRAMP_PHASE_1',T= 120,F=2.061190e-01/
&RAMP	ID='KRAMP_PHASE_1',T= 130,F=2.089490e-01/
&RAMP	ID='KRAMP_PHASE_1',T= 140,F=2.117790e-01/
&RAMP	ID='KRAMP_PHASE_1',T= 150,F=2.146090e-01/
&RAMP	ID='KRAMP_PHASE_1',T= 160,F=2.174390e-01/
&RAMP	ID='KRAMP_PHASE_1',T= 170,F=2.202690e-01/
&RAMP	ID='KRAMP_PHASE_1',T= 180,F=2.230990e-01/
&RAMP	ID='KRAMP_PHASE_1',T= 190,F=2.259290e-01/
! ... 181 like lines cut
&RAMP	ID='CPRAMP_PHASE_1',T=   0,F=1.111707e+00/
&RAMP	ID='CPRAMP_PHASE_1',T=  10,F=1.114297e+00/
&RAMP	ID='CPRAMP_PHASE_1',T=  20,F=1.116887e+00/
&RAMP	ID='CPRAMP_PHASE_1',T=  30,F=1.119477e+00/
&RAMP	ID='CPRAMP_PHASE_1',T=  40,F=1.122067e+00/
&RAMP	ID='CPRAMP_PHASE_1',T=  50,F=1.124657e+00/
&RAMP	ID='CPRAMP_PHASE_1',T=  60,F=1.127247e+00/
&RAMP	ID='CPRAMP_PHASE_1',T=  70,F=1.129837e+00/
&RAMP	ID='CPRAMP_PHASE_1',T=  80,F=1.132427e+00/
&RAMP	ID='CPRAMP_PHASE_1',T=  90,F=1.135017e+00/
&RAMP	ID='CPRAMP_PHASE_1',T= 100,F=1.137607e+00/
&RAMP	ID='CPRAMP_PHASE_1',T= 110,F=1.140197e+00/
&RAMP	ID='CPRAMP_PHASE_1',T= 120,F=1.142787e+00/
&RAMP	ID='CPRAMP_PHASE_1',T= 130,F=1.145377e+00/
&RAMP	ID='CPRAMP_PHASE_1',T= 140,F=1.147967e+00/
&RAMP	ID='CPRAMP_PHASE_1',T= 150,F=1.150557e+00/
&RAMP	ID='CPRAMP_PHASE_1',T= 160,F=1.153147e+00/
&RAMP	ID='CPRAMP_PHASE_1',T= 170,F=1.155737e+00/
&RAMP	ID='CPRAMP_PHASE_1',T= 180,F=1.158327e+00/
&RAMP	ID='CPRAMP_PHASE_1',T= 190,F=1.160917e+00/
! ... 181 like lines cut
&DEVC XYZ = 0.0,0.0,0.0, IOR=3, QUANTITY = 'WALL THICKNESS', ID='Wall thickness' /
&DEVC XYZ = 0.0,0.0,0.0, IOR=3, QUANTITY = 'WALL TEMPERATURE', ID='Wall_temperature' /
&DEVC XYZ = 0.0,0.0,0.0, IOR=3, QUANTITY = 'BACK WALL TEMPERATURE', ID='Back_wall_temperature' /
&TAIL	/
