&HEAD	CHID='E_GlassOldLinearMass_T_100KW_s0', TITLE='FDS Analysis for Optimizing on Cone Calorimeter Data' /
&TIME	T_end=1500.0	DT=1.00	WALL_INCREMENT=1.0 /
&MESH	IJK=3,3,3	XB=-0.1524,0.1524,-0.1524,0.1524,0.0000,0.3048 /
&MISC	SOLID_PHASE_ONLY=.TRUE., Y_O2_INFTY=0.21, TMPA=25 /
&DUMP	DT_DEVC=1 DT_HRR=1 /
&SPEC	ID='OFF_GAS' /
&VENT	XB=-0.0508,0.0508,-0.0508,0.0508,0.0,0.0, SURF_ID='AR' /
&SURF     ID='AR',COLOR='RED',STRETCH_FACTOR=1.,CELL_SIZE_FACTOR=1.,HEAT_TRANSFER_COEFFICIENT=15.00
		MATL_ID(1,1:1)='PHASE_0'
		MATL_MASS_FRACTION(1,1:1)=1.0000
		EXTERNAL_FLUX=100.000000
		THICKNESS=0.008000
		BACKING=INSULATED,TMP_BACK=25.00,TMP_INNER=25.00 /
&MATL	ID='PHASE_0'
		EMISSIVITY=9.417000e-01
		ABSORPTION_COEFFICIENT=1.024665e+04
		DENSITY=1683.000000
		CONDUCTIVITY_RAMP='KRAMP_PHASE_0'
		SPECIFIC_HEAT_RAMP='CPRAMP_PHASE_0'
		N_REACTIONS=1
		A=3.430000e+12
		E=1.830000e+05
		N_S=1.013000
		N_O2=0.000000e+00
		HEAT_OF_REACTION=9.984741e+01
		NU_SPEC=0.266191
		SPEC_ID='OFF_GAS'
		NU_MATL=0.733809
		MATL_ID='PHASE_1'
/
&RAMP	ID='KRAMP_PHASE_0',T=   0,F=3.245752e-01/
&RAMP	ID='KRAMP_PHASE_0',T=  10,F=3.249992e-01/
&RAMP	ID='KRAMP_PHASE_0',T=  20,F=3.254232e-01/
&RAMP	ID='KRAMP_PHASE_0',T=  30,F=3.258472e-01/
&RAMP	ID='KRAMP_PHASE_0',T=  40,F=3.262712e-01/
&RAMP	ID='KRAMP_PHASE_0',T=  50,F=3.266952e-01/
&RAMP	ID='KRAMP_PHASE_0',T=  60,F=3.271192e-01/
&RAMP	ID='KRAMP_PHASE_0',T=  70,F=3.275432e-01/
&RAMP	ID='KRAMP_PHASE_0',T=  80,F=3.279672e-01/
&RAMP	ID='KRAMP_PHASE_0',T=  90,F=3.283912e-01/
&RAMP	ID='KRAMP_PHASE_0',T= 100,F=3.288152e-01/
&RAMP	ID='KRAMP_PHASE_0',T= 110,F=3.292392e-01/
&RAMP	ID='KRAMP_PHASE_0',T= 120,F=3.296632e-01/
&RAMP	ID='KRAMP_PHASE_0',T= 130,F=3.300872e-01/
&RAMP	ID='KRAMP_PHASE_0',T= 140,F=3.305112e-01/
&RAMP	ID='KRAMP_PHASE_0',T= 150,F=3.309352e-01/
&RAMP	ID='KRAMP_PHASE_0',T= 160,F=3.313592e-01/
&RAMP	ID='KRAMP_PHASE_0',T= 170,F=3.317832e-01/
&RAMP	ID='KRAMP_PHASE_0',T= 180,F=3.322072e-01/
&RAMP	ID='KRAMP_PHASE_0',T= 190,F=3.326312e-01/
! ... 181 like lines cut
&RAMP	ID='CPRAMP_PHASE_0',T=   0,F=1.094476e+00/
&RAMP	ID='CPRAMP_PHASE_0',T=  10,F=1.094933e+00/
&RAMP	ID='CPRAMP_PHASE_0',T=  20,F=1.095390e+00/
&RAMP	ID='CPRAMP_PHASE_0',T=  30,F=1.095847e+00/
&RAMP	ID='CPRAMP_PHASE_0',T=  40,F=1.096304e+00/
&RAMP	ID='CPRAMP_PHASE_0',T=  50,F=1.096761e+00/
&RAMP	ID='CPRAMP_PHASE_0',T=  60,F=1.097218e+00/
&RAMP	ID='CPRAMP_PHASE_0',T=  70,F=1.097675e+00/
&RAMP	ID='CPRAMP_PHASE_0',T=  80,F=1.098132e+00/
&RAMP	ID='CPRAMP_PHASE_0',T=  90,F=1.098589e+00/
&RAMP	ID='CPRAMP_PHASE_0',T= 100,F=1.099046e+00/
&RAMP	ID='CPRAMP_PHASE_0',T= 110,F=1.099503e+00/
&RAMP	ID='CPRAMP_PHASE_0',T= 120,F=1.099960e+00/
&RAMP	ID='CPRAMP_PHASE_0',T= 130,F=1.100417e+00/
&RAMP	ID='CPRAMP_PHASE_0',T= 140,F=1.100874e+00/
&RAMP	ID='CPRAMP_PHASE_0',T= 150,F=1.101331e+00/
&RAMP	ID='CPRAMP_PHASE_0',T= 160,F=1.101788e+00/
&RAMP	ID='CPRAMP_PHASE_0',T= 170,F=1.102245e+00/
&RAMP	ID='CPRAMP_PHASE_0',T= 180,F=1.102702e+00/
&RAMP	ID='CPRAMP_PHASE_0',T= 190,F=1.103159e+00/
! ... 181 like lines cut
&MATL	ID='PHASE_1'
		EMISSIVITY=9.400000e-01
		ABSORPTION_COEFFICIENT=1.000000e+08
		DENSITY=1235.000000
		CONDUCTIVITY_RAMP='KRAMP_PHASE_1'
		SPECIFIC_HEAT_RAMP='CPRAMP_PHASE_1'
/
&RAMP	ID='KRAMP_PHASE_1',T=   0,F=1.653000e-01/
&RAMP	ID='KRAMP_PHASE_1',T=  10,F=1.683000e-01/
&RAMP	ID='KRAMP_PHASE_1',T=  20,F=1.713000e-01/
&RAMP	ID='KRAMP_PHASE_1',T=  30,F=1.743000e-01/
&RAMP	ID='KRAMP_PHASE_1',T=  40,F=1.773000e-01/
&RAMP	ID='KRAMP_PHASE_1',T=  50,F=1.803000e-01/
&RAMP	ID='KRAMP_PHASE_1',T=  60,F=1.833000e-01/
&RAMP	ID='KRAMP_PHASE_1',T=  70,F=1.863000e-01/
&RAMP	ID='KRAMP_PHASE_1',T=  80,F=1.893000e-01/
&RAMP	ID='KRAMP_PHASE_1',T=  90,F=1.923000e-01/
&RAMP	ID='KRAMP_PHASE_1',T= 100,F=1.953000e-01/
&RAMP	ID='KRAMP_PHASE_1',T= 110,F=1.983000e-01/
&RAMP	ID='KRAMP_PHASE_1',T= 120,F=2.013000e-01/
&RAMP	ID='KRAMP_PHASE_1',T= 130,F=2.043000e-01/
&RAMP	ID='KRAMP_PHASE_1',T= 140,F=2.073000e-01/
&RAMP	ID='KRAMP_PHASE_1',T= 150,F=2.103000e-01/
&RAMP	ID='KRAMP_PHASE_1',T= 160,F=2.133000e-01/
&RAMP	ID='KRAMP_PHASE_1',T= 170,F=2.163000e-01/
&RAMP	ID='KRAMP_PHASE_1',T= 180,F=2.193000e-01/
&RAMP	ID='KRAMP_PHASE_1',T= 190,F=2.223000e-01/
! ... 181 like lines cut
&RAMP	ID='CPRAMP_PHASE_1',T=   0,F=1.114997e+00/
&RAMP	ID='CPRAMP_PHASE_1',T=  10,F=1.117561e+00/
&RAMP	ID='CPRAMP_PHASE_1',T=  20,F=1.120125e+00/
&RAMP	ID='CPRAMP_PHASE_1',T=  30,F=1.122689e+00/
&RAMP	ID='CPRAMP_PHASE_1',T=  40,F=1.125253e+00/
&RAMP	ID='CPRAMP_PHASE_1',T=  50,F=1.127817e+00/
&RAMP	ID='CPRAMP_PHASE_1',T=  60,F=1.130381e+00/
&RAMP	ID='CPRAMP_PHASE_1',T=  70,F=1.132945e+00/
&RAMP	ID='CPRAMP_PHASE_1',T=  80,F=1.135509e+00/
&RAMP	ID='CPRAMP_PHASE_1',T=  90,F=1.138073e+00/
&RAMP	ID='CPRAMP_PHASE_1',T= 100,F=1.140637e+00/
&RAMP	ID='CPRAMP_PHASE_1',T= 110,F=1.143201e+00/
&RAMP	ID='CPRAMP_PHASE_1',T= 120,F=1.145765e+00/
&RAMP	ID='CPRAMP_PHASE_1',T= 130,F=1.148329e+00/
&RAMP	ID='CPRAMP_PHASE_1',T= 140,F=1.150893e+00/
&RAMP	ID='CPRAMP_PHASE_1',T= 150,F=1.153457e+00/
&RAMP	ID='CPRAMP_PHASE_1',T= 160,F=1.156021e+00/
&RAMP	ID='CPRAMP_PHASE_1',T= 170,F=1.158585e+00/
&RAMP	ID='CPRAMP_PHASE_1',T= 180,F=1.161149e+00/
&RAMP	ID='CPRAMP_PHASE_1',T= 190,F=1.163713e+00/
! ... 181 like lines cut
&DEVC XYZ = 0.0,0.0,0.0, IOR=3, QUANTITY = 'WALL THICKNESS', ID='Wall thickness' /
&DEVC XYZ = 0.0,0.0,0.0, IOR=3, QUANTITY = 'WALL TEMPERATURE', ID='Wall_temperature' /
&DEVC XYZ = 0.0,0.0,0.0, IOR=3, QUANTITY = 'BACK WALL TEMPERATURE', ID='Back_wall_temperature' /
&TAIL	/
