&HEAD	CHID='E_GlassOldLinearWide15KW_s0', TITLE='FDS Analysis for Optimizing on Cone Calorimeter Data' /
&TIME	T_end=6000.0	DT=1.00	WALL_INCREMENT=1.0 /
&MESH	IJK=3,3,3	XB=-0.1524,0.1524,-0.1524,0.1524,0.0000,0.3048 /
&MISC	SOLID_PHASE_ONLY=.TRUE., Y_O2_INFTY=0.21, TMPA=25 /
&DUMP	DT_DEVC=1 DT_HRR=1 /
&SPEC	ID='OFF_GAS' /
&VENT	XB=-0.0508,0.0508,-0.0508,0.0508,0.0,0.0, SURF_ID='AR' /
&SURF     ID='AR',COLOR='RED',STRETCH_FACTOR=1.,CELL_SIZE_FACTOR=1.,HEAT_TRANSFER_COEFFICIENT=15.00
		MATL_ID(1,1:1)='PHASE_0'
		MATL_MASS_FRACTION(1,1:1)=1.0000
		EXTERNAL_FLUX=15.000000
		THICKNESS=0.008000
		BACKING=INSULATED,TMP_BACK=25.00,TMP_INNER=25.00 /
&MATL	ID='PHASE_0'
		EMISSIVITY=1.000000e+00
		ABSORPTION_COEFFICIENT=2.169896e+04
		DENSITY=1683.000000
		CONDUCTIVITY_RAMP='KRAMP_PHASE_0'
		SPECIFIC_HEAT_RAMP='CPRAMP_PHASE_0'
		N_REACTIONS=1
		A=8.340000e+11
		E=1.240000e+05
		N_S=1.915174
		N_O2=0.000000e+00
		HEAT_OF_REACTION=2.074347e+02
		NU_SPEC=0.266191
		SPEC_ID='OFF_GAS'
		NU_MATL=0.733809
		MATL_ID='PHASE_1'
/
&RAMP	ID='KRAMP_PHASE_0',T=   0,F=1.133221e+00/
&RAMP	ID='KRAMP_PHASE_0',T=  10,F=1.134982e+00/
&RAMP	ID='KRAMP_PHASE_0',T=  20,F=1.136744e+00/
&RAMP	ID='KRAMP_PHASE_0',T=  30,F=1.138506e+00/
&RAMP	ID='KRAMP_PHASE_0',T=  40,F=1.140267e+00/
&RAMP	ID='KRAMP_PHASE_0',T=  50,F=1.142029e+00/
&RAMP	ID='KRAMP_PHASE_0',T=  60,F=1.143790e+00/
&RAMP	ID='KRAMP_PHASE_0',T=  70,F=1.145552e+00/
&RAMP	ID='KRAMP_PHASE_0',T=  80,F=1.147314e+00/
&RAMP	ID='KRAMP_PHASE_0',T=  90,F=1.149075e+00/
&RAMP	ID='KRAMP_PHASE_0',T= 100,F=1.150837e+00/
&RAMP	ID='KRAMP_PHASE_0',T= 110,F=1.152598e+00/
&RAMP	ID='KRAMP_PHASE_0',T= 120,F=1.154360e+00/
&RAMP	ID='KRAMP_PHASE_0',T= 130,F=1.156122e+00/
&RAMP	ID='KRAMP_PHASE_0',T= 140,F=1.157883e+00/
&RAMP	ID='KRAMP_PHASE_0',T= 150,F=1.159645e+00/
&RAMP	ID='KRAMP_PHASE_0',T= 160,F=1.161406e+00/
&RAMP	ID='KRAMP_PHASE_0',T= 170,F=1.163168e+00/
&RAMP	ID='KRAMP_PHASE_0',T= 180,F=1.164929e+00/
&RAMP	ID='KRAMP_PHASE_0',T= 190,F=1.166691e+00/
! ... 181 like lines cut
&RAMP	ID='CPRAMP_PHASE_0',T=   0,F=4.103723e+00/
&RAMP	ID='CPRAMP_PHASE_0',T=  10,F=4.105400e+00/
&RAMP	ID='CPRAMP_PHASE_0',T=  20,F=4.107076e+00/
&RAMP	ID='CPRAMP_PHASE_0',T=  30,F=4.108753e+00/
&RAMP	ID='CPRAMP_PHASE_0',T=  40,F=4.110430e+00/
&RAMP	ID='CPRAMP_PHASE_0',T=  50,F=4.112106e+00/
&RAMP	ID='CPRAMP_PHASE_0',T=  60,F=4.113783e+00/
&RAMP	ID='CPRAMP_PHASE_0',T=  70,F=4.115460e+00/
&RAMP	ID='CPRAMP_PHASE_0',T=  80,F=4.117137e+00/
&RAMP	ID='CPRAMP_PHASE_0',T=  90,F=4.118813e+00/
&RAMP	ID='CPRAMP_PHASE_0',T= 100,F=4.120490e+00/
&RAMP	ID='CPRAMP_PHASE_0',T= 110,F=4.122167e+00/
&RAMP	ID='CPRAMP_PHASE_0',T= 120,F=4.123843e+00/
&RAMP	ID='CPRAMP_PHASE_0',T= 130,F=4.125520e+00/
&RAMP	ID='CPRAMP_PHASE_0',T= 140,F=4.127197e+00/
&RAMP	ID='CPRAMP_PHASE_0',T= 150,F=4.128874e+00/
&RAMP	ID='CPRAMP_PHASE_0',T= 160,F=4.130550e+00/
&RAMP	ID='CPRAMP_PHASE_0',T= 170,F=4.132227e+00/
&RAMP	ID='CPRAMP_PHASE_0',T= 180,F=4.133904e+00/
&RAMP	ID='CPRAMP_PHASE_0',T= 190,F=4.135580e+00/
! ... 181 like lines cut
&MATL	ID='PHASE_1'
		EMISSIVITY=9.400000e-01
		ABSORPTION_COEFFICIENT=1.000000e+08
		DENSITY=1235.000000
		CONDUCTIVITY_RAMP='KRAMP_PHASE_1'
		SPECIFIC_HEAT_RAMP='CPRAMP_PHASE_1'
/
&RAMP	ID='KRAMP_PHASE_1',T=   0,F=1.937723e-01/
&RAMP	ID='KRAMP_PHASE_1',T=  10,F=1.944803e-01/
&RAMP	ID='KRAMP_PHASE_1',T=  20,F=1.951883e-01/
&RAMP	ID='KRAMP_PHASE_1',T=  30,F=1.958963e-01/
&RAMP	ID='KRAMP_PHASE_1',T=  40,F=1.966043e-01/
&RAMP	ID='KRAMP_PHASE_1',T=  50,F=1.973123e-01/
&RAMP	ID='KRAMP_PHASE_1',T=  60,F=1.980203e-01/
&RAMP	ID='KRAMP_PHASE_1',T=  70,F=1.987283e-01/
&RAMP	ID='KRAMP_PHASE_1',T=  80,F=1.994363e-01/
&RAMP	ID='KRAMP_PHASE_1',T=  90,F=2.001443e-01/
&RAMP	ID='KRAMP_PHASE_1',T= 100,F=2.008523e-01/
&RAMP	ID='KRAMP_PHASE_1',T= 110,F=2.015603e-01/
&RAMP	ID='KRAMP_PHASE_1',T= 120,F=2.022683e-01/
&RAMP	ID='KRAMP_PHASE_1',T= 130,F=2.029763e-01/
&RAMP	ID='KRAMP_PHASE_1',T= 140,F=2.036843e-01/
&RAMP	ID='KRAMP_PHASE_1',T= 150,F=2.043923e-01/
&RAMP	ID='KRAMP_PHASE_1',T= 160,F=2.051003e-01/
&RAMP	ID='KRAMP_PHASE_1',T= 170,F=2.058083e-01/
&RAMP	ID='KRAMP_PHASE_1',T= 180,F=2.065163e-01/
&RAMP	ID='KRAMP_PHASE_1',T= 190,F=2.072243e-01/
! ... 181 like lines cut
&RAMP	ID='CPRAMP_PHASE_1',T=   0,F=9.531408e-01/
&RAMP	ID='CPRAMP_PHASE_1',T=  10,F=9.537898e-01/
&RAMP	ID='CPRAMP_PHASE_1',T=  20,F=9.544389e-01/
&RAMP	ID='CPRAMP_PHASE_1',T=  30,F=9.550880e-01/
&RAMP	ID='CPRAMP_PHASE_1',T=  40,F=9.557370e-01/
&RAMP	ID='CPRAMP_PHASE_1',T=  50,F=9.563861e-01/
&RAMP	ID='CPRAMP_PHASE_1',T=  60,F=9.570352e-01/
&RAMP	ID='CPRAMP_PHASE_1',T=  70,F=9.576842e-01/
&RAMP	ID='CPRAMP_PHASE_1',T=  80,F=9.583333e-01/
&RAMP	ID='CPRAMP_PHASE_1',T=  90,F=9.589824e-01/
&RAMP	ID='CPRAMP_PHASE_1',T= 100,F=9.596314e-01/
&RAMP	ID='CPRAMP_PHASE_1',T= 110,F=9.602805e-01/
&RAMP	ID='CPRAMP_PHASE_1',T= 120,F=9.609296e-01/
&RAMP	ID='CPRAMP_PHASE_1',T= 130,F=9.615786e-01/
&RAMP	ID='CPRAMP_PHASE_1',T= 140,F=9.622277e-01/
&RAMP	ID='CPRAMP_PHASE_1',T= 150,F=9.628768e-01/
&RAMP	ID='CPRAMP_PHASE_1',T= 160,F=9.635258e-01/
&RAMP	ID='CPRAMP_PHASE_1',T= 170,F=9.641749e-01/
&RAMP	ID='CPRAMP_PHASE_1',T= 180,F=9.648239e-01/
&RAMP	ID='CPRAMP_PHASE_1',T= 190,F=9.654730e-01/
! ... 181 like lines cut
&DEVC XYZ = 0.0,0.0,0.0, IOR=3, QUANTITY = 'WALL THICKNESS', ID='Wall thickness' /
&DEVC XYZ = 0.0,0.0,0.0, IOR=3, QUANTITY = 'WALL TEMPERATURE', ID='Wall_temperature' /
&DEVC XYZ = 0.0,0.0,0.0, IOR=3, QUANTITY = 'BACK WALL TEMPERATURE', ID='Back_wall_temperature' /
&TAIL	/
