&HEAD	CHID='E_GlassOldLinearHybrid15KW_s0', TITLE='FDS Analysis for Optimizing on Cone Calorimeter Data' /
&TIME	T_end=6000.0	DT=1.00	WALL_INCREMENT=1.0 /
&MESH	IJK=3,3,3	XB=-0.1524,0.1524,-0.1524,0.1524,0.0000,0.3048 /
&MISC	SOLID_PHASE_ONLY=.TRUE., Y_O2_INFTY=0.21, TMPA=25 /
&DUMP	DT_DEVC=1 DT_HRR=1 /
&SPEC	ID='OFF_GAS' /
&VENT	XB=-0.0508,0.0508,-0.0508,0.0508,0.0,0.0, SURF_ID='AR' /
&SURF     ID='AR',COLOR='RED',STRETCH_FACTOR=1.,CELL_SIZE_FACTOR=1.,HEAT_TRANSFER_COEFFICIENT=15.00
		MATL_ID(1,1:1)='PHASE_0'
		MATL_MASS_FRACTION(1,1:1)=1.0000
		EXTERNAL_FLUX=15.000000
		THICKNESS=0.008000
		BACKING=INSULATED,TMP_BACK=25.00,TMP_INNER=25.00 /
&MATL	ID='PHASE_0'
		EMISSIVITY=9.581866e-01
		ABSORPTION_COEFFICIENT=2.548320e+04
		DENSITY=1683.000000
		CONDUCTIVITY_RAMP='KRAMP_PHASE_0'
		SPECIFIC_HEAT_RAMP='CPRAMP_PHASE_0'
		N_REACTIONS=1
		A=2.190000e+12
		E=1.780000e+05
		N_S=0.985130
		N_O2=0.000000e+00
		HEAT_OF_REACTION=1.115054e+02
		NU_SPEC=0.266191
		SPEC_ID='OFF_GAS'
		NU_MATL=0.733809
		MATL_ID='PHASE_1'
/
&RAMP	ID='KRAMP_PHASE_0',T=   0,F=3.161336e-01/
&RAMP	ID='KRAMP_PHASE_0',T=  10,F=3.178218e-01/
&RAMP	ID='KRAMP_PHASE_0',T=  20,F=3.195099e-01/
&RAMP	ID='KRAMP_PHASE_0',T=  30,F=3.211981e-01/
&RAMP	ID='KRAMP_PHASE_0',T=  40,F=3.228862e-01/
&RAMP	ID='KRAMP_PHASE_0',T=  50,F=3.245744e-01/
&RAMP	ID='KRAMP_PHASE_0',T=  60,F=3.262625e-01/
&RAMP	ID='KRAMP_PHASE_0',T=  70,F=3.279506e-01/
&RAMP	ID='KRAMP_PHASE_0',T=  80,F=3.296388e-01/
&RAMP	ID='KRAMP_PHASE_0',T=  90,F=3.313269e-01/
&RAMP	ID='KRAMP_PHASE_0',T= 100,F=3.330151e-01/
&RAMP	ID='KRAMP_PHASE_0',T= 110,F=3.347032e-01/
&RAMP	ID='KRAMP_PHASE_0',T= 120,F=3.363914e-01/
&RAMP	ID='KRAMP_PHASE_0',T= 130,F=3.380795e-01/
&RAMP	ID='KRAMP_PHASE_0',T= 140,F=3.397677e-01/
&RAMP	ID='KRAMP_PHASE_0',T= 150,F=3.414558e-01/
&RAMP	ID='KRAMP_PHASE_0',T= 160,F=3.431440e-01/
&RAMP	ID='KRAMP_PHASE_0',T= 170,F=3.448321e-01/
&RAMP	ID='KRAMP_PHASE_0',T= 180,F=3.465202e-01/
&RAMP	ID='KRAMP_PHASE_0',T= 190,F=3.482084e-01/
! ... 181 like lines cut
&RAMP	ID='CPRAMP_PHASE_0',T=   0,F=1.185799e+00/
&RAMP	ID='CPRAMP_PHASE_0',T=  10,F=1.186223e+00/
&RAMP	ID='CPRAMP_PHASE_0',T=  20,F=1.186648e+00/
&RAMP	ID='CPRAMP_PHASE_0',T=  30,F=1.187072e+00/
&RAMP	ID='CPRAMP_PHASE_0',T=  40,F=1.187496e+00/
&RAMP	ID='CPRAMP_PHASE_0',T=  50,F=1.187921e+00/
&RAMP	ID='CPRAMP_PHASE_0',T=  60,F=1.188345e+00/
&RAMP	ID='CPRAMP_PHASE_0',T=  70,F=1.188770e+00/
&RAMP	ID='CPRAMP_PHASE_0',T=  80,F=1.189194e+00/
&RAMP	ID='CPRAMP_PHASE_0',T=  90,F=1.189619e+00/
&RAMP	ID='CPRAMP_PHASE_0',T= 100,F=1.190043e+00/
&RAMP	ID='CPRAMP_PHASE_0',T= 110,F=1.190467e+00/
&RAMP	ID='CPRAMP_PHASE_0',T= 120,F=1.190892e+00/
&RAMP	ID='CPRAMP_PHASE_0',T= 130,F=1.191316e+00/
&RAMP	ID='CPRAMP_PHASE_0',T= 140,F=1.191741e+00/
&RAMP	ID='CPRAMP_PHASE_0',T= 150,F=1.192165e+00/
&RAMP	ID='CPRAMP_PHASE_0',T= 160,F=1.192589e+00/
&RAMP	ID='CPRAMP_PHASE_0',T= 170,F=1.193014e+00/
&RAMP	ID='CPRAMP_PHASE_0',T= 180,F=1.193438e+00/
&RAMP	ID='CPRAMP_PHASE_0',T= 190,F=1.193863e+00/
! ... 181 like lines cut
&MATL	ID='PHASE_1'
		EMISSIVITY=9.400000e-01
		ABSORPTION_COEFFICIENT=1.000000e+08
		DENSITY=1235.000000
		CONDUCTIVITY_RAMP='KRAMP_PHASE_1'
		SPECIFIC_HEAT_RAMP='CPRAMP_PHASE_1'
/
&RAMP	ID='KRAMP_PHASE_1',T=   0,F=2.507840e-01/
&RAMP	ID='KRAMP_PHASE_1',T=  10,F=2.525847e-01/
&RAMP	ID='KRAMP_PHASE_1',T=  20,F=2.543853e-01/
&RAMP	ID='KRAMP_PHASE_1',T=  30,F=2.561860e-01/
&RAMP	ID='KRAMP_PHASE_1',T=  40,F=2.579866e-01/
&RAMP	ID='KRAMP_PHASE_1',T=  50,F=2.597873e-01/
&RAMP	ID='KRAMP_PHASE_1',T=  60,F=2.615880e-01/
&RAMP	ID='KRAMP_PHASE_1',T=  70,F=2.633886e-01/
&RAMP	ID='KRAMP_PHASE_1',T=  80,F=2.651893e-01/
&RAMP	ID='KRAMP_PHASE_1',T=  90,F=2.669899e-01/
&RAMP	ID='KRAMP_PHASE_1',T= 100,F=2.687906e-01/
&RAMP	ID='KRAMP_PHASE_1',T= 110,F=2.705912e-01/
&RAMP	ID='KRAMP_PHASE_1',T= 120,F=2.723919e-01/
&RAMP	ID='KRAMP_PHASE_1',T= 130,F=2.741925e-01/
&RAMP	ID='KRAMP_PHASE_1',T= 140,F=2.759932e-01/
&RAMP	ID='KRAMP_PHASE_1',T= 150,F=2.777938e-01/
&RAMP	ID='KRAMP_PHASE_1',T= 160,F=2.795945e-01/
&RAMP	ID='KRAMP_PHASE_1',T= 170,F=2.813951e-01/
&RAMP	ID='KRAMP_PHASE_1',T= 180,F=2.831958e-01/
&RAMP	ID='KRAMP_PHASE_1',T= 190,F=2.849964e-01/
! ... 181 like lines cut
&RAMP	ID='CPRAMP_PHASE_1',T=   0,F=1.426669e+00/
&RAMP	ID='CPRAMP_PHASE_1',T=  10,F=1.429282e+00/
&RAMP	ID='CPRAMP_PHASE_1',T=  20,F=1.431894e+00/
&RAMP	ID='CPRAMP_PHASE_1',T=  30,F=1.434507e+00/
&RAMP	ID='CPRAMP_PHASE_1',T=  40,F=1.437120e+00/
&RAMP	ID='CPRAMP_PHASE_1',T=  50,F=1.439732e+00/
&RAMP	ID='CPRAMP_PHASE_1',T=  60,F=1.442345e+00/
&RAMP	ID='CPRAMP_PHASE_1',T=  70,F=1.444958e+00/
&RAMP	ID='CPRAMP_PHASE_1',T=  80,F=1.447571e+00/
&RAMP	ID='CPRAMP_PHASE_1',T=  90,F=1.450183e+00/
&RAMP	ID='CPRAMP_PHASE_1',T= 100,F=1.452796e+00/
&RAMP	ID='CPRAMP_PHASE_1',T= 110,F=1.455409e+00/
&RAMP	ID='CPRAMP_PHASE_1',T= 120,F=1.458022e+00/
&RAMP	ID='CPRAMP_PHASE_1',T= 130,F=1.460634e+00/
&RAMP	ID='CPRAMP_PHASE_1',T= 140,F=1.463247e+00/
&RAMP	ID='CPRAMP_PHASE_1',T= 150,F=1.465860e+00/
&RAMP	ID='CPRAMP_PHASE_1',T= 160,F=1.468473e+00/
&RAMP	ID='CPRAMP_PHASE_1',T= 170,F=1.471085e+00/
&RAMP	ID='CPRAMP_PHASE_1',T= 180,F=1.473698e+00/
&RAMP	ID='CPRAMP_PHASE_1',T= 190,F=1.476311e+00/
! ... 181 like lines cut
&DEVC XYZ = 0.0,0.0,0.0, IOR=3, QUANTITY = 'WALL THICKNESS', ID='Wall thickness' /
&DEVC XYZ = 0.0,0.0,0.0, IOR=3, QUANTITY = 'WALL TEMPERATURE', ID='Wall_temperature' /
&DEVC XYZ = 0.0,0.0,0.0, IOR=3, QUANTITY = 'BACK WALL TEMPERATURE', ID='Back_wall_temperature' /
&TAIL	/
