
 Fire Dynamics Simulator

 Compilation Date : Sat, 11 Apr 2015
 Current Date     : June 29, 2018  14:47:25
 Version          : FDS 6.2.0
 SVN Revision No. : 22343

 MPI Enabled; Number of MPI Processes:     1
 OpenMP Enabled; Number of OpenMP Threads:   4

 Job TITLE        : FDS Analysis for Optimizing on Cone Calorimeter Data
 Job ID string    : E_GlassOldConstHybrid10KW_s0


 Grid Dimensions, Mesh     1

   Cells in the X Direction             3
   Cells in the Y Direction             3
   Cells in the Z Direction             3


 Physical Dimensions, Mesh     1

   Length (m)                       0.305
   Width  (m)                       0.305
   Height (m)                       0.305
   Initial Time Step (s)            1.000


 Miscellaneous Parameters

   Simulation Start Time (s)          0.0
   Simulation End Time (s)         6000.0
   LES Calculation
   Deardorff Model (C_DEARDORFF)     0.10
   Turbulent Prandtl Number          0.50
   Turbulent Schmidt Number          0.50
   Ambient Temperature (C)          25.00


 Mass Fraction Transformation Matrix to Convert Species Mixtures (Columns) to Primitive Species (Rows)

                         AIR       OFF_GAS 
   NITROGEN              0.783705  0.000000
   OXYGEN                0.208484  0.000000
   CARBON DIOXIDE        0.000591  0.000000
   WATER VAPOR           0.007221  0.000000
   OFF_GAS               0.000000  1.000000


 Primitive Species Information

   NITROGEN                                                    
   Gas Species
   Molecular Weight (g/mol)            28.01340
   Ambient Density (kg/m^3)            1.145
   Enthalpy of Formation (J/kg)        0.00E+00

   OXYGEN                                                      
   Gas Species
   Molecular Weight (g/mol)            31.99880
   Ambient Density (kg/m^3)            1.308
   Enthalpy of Formation (J/kg)        0.00E+00

   CARBON DIOXIDE                                              
   Gas Species
   Molecular Weight (g/mol)            44.00950
   Ambient Density (kg/m^3)            1.799
   Enthalpy of Formation (J/kg)       -8.94E+06

   WATER VAPOR                                                 
   Gas Species
   Molecular Weight (g/mol)            18.01528
   Ambient Density (kg/m^3)            0.736
   Enthalpy of Formation (J/kg)       -1.34E+07

   OFF_GAS                                                     
   Gas Species
   Molecular Weight (g/mol)            28.84852
   Ambient Density (kg/m^3)            1.179
   Enthalpy of Formation (J/kg)     not specified


 Tracked (Lumped) Species Information

   AIR                                                         
   Molecular Weight (g/mol)            28.64864
   Ambient Density (kg/m^3)            1.171
   Initial Mass Fraction               1.000
   Enthalpy of Formation (J/kg)     -1.02E+05

   Sub Species                    Mass Fraction     Mole Fraction
   NITROGEN                       7.837049E-01      8.014765E-01
   OXYGEN                         2.084836E-01      1.866562E-01
   CARBON DIOXIDE                 5.907036E-04      3.845274E-04
   WATER VAPOR                    7.220804E-03      1.148282E-02
 
   Viscosity (kg/m/s)   Ambient (293 K):  1.81E-05
                                  500 K:  2.59E-05
                                 1000 K:  4.10E-05
                                 1500 K:  5.34E-05
   Therm. Cond. (W/m/K) Ambient (293 K):  2.57E-02
                                  500 K:  3.79E-02
                                 1000 K:  6.61E-02
                                 1500 K:  9.19E-02
   Spec. Heat (J/kg/K)  Ambient (293 K):  1.02E+03
                                  500 K:  1.04E+03
                                 1000 K:  1.15E+03
                                 1500 K:  1.23E+03
   Diff. Coeff. (m^2/s) Ambient (293 K):  2.05E-05
                                  500 K:  4.96E-05
                                 1000 K:  1.58E-04
                                 1500 K:  3.09E-04

   OFF_GAS                                                     
   Molecular Weight (g/mol)            28.84852
   Ambient Density (kg/m^3)            1.179
   Initial Mass Fraction               0.000
   Enthalpy of Formation (J/kg)     -2.00E+23

   Sub Species                    Mass Fraction     Mole Fraction
   OFF_GAS                        1.000000E+00      1.000000E+00
 
   Viscosity (kg/m/s)   Ambient (293 K):  1.83E-05
                                  500 K:  2.63E-05
                                 1000 K:  4.14E-05
                                 1500 K:  5.38E-05
   Therm. Cond. (W/m/K) Ambient (293 K):  3.70E-02
                                  500 K:  5.30E-02
                                 1000 K:  8.35E-02
                                 1500 K:  1.09E-01
   Spec. Heat (J/kg/K)  Ambient (293 K):  1.01E+03
                                  500 K:  1.01E+03
                                 1000 K:  1.01E+03
                                 1500 K:  1.01E+03
   Diff. Coeff. (m^2/s) Ambient (293 K):  2.05E-05
                                  500 K:  4.97E-05
                                 1000 K:  1.58E-04
                                 1500 K:  3.10E-04


 Material Information

   1 PHASE_0                                                     
     Emissivity                      0.933
     Density (kg/m3)                1683.0
     Specific Heat (kJ/kg/K)          1.49
     Conductivity (W/m/K)           0.2969
     Absorption coefficient (1/m) 20892.68
     Reaction  1
        Residue: PHASE_1, Material Index:  2, Yield:  0.734
        Gaseous Yields:
        AIR                                                         :     0.00
        OFF_GAS                                                     :     0.27
        A (1/s)    :  2.40E+12
        E (kJ/kmol):  1.81E+05
        H_R (kJ/kg):  1.01E+02
        N_S        :     1.00

   2 PHASE_1                                                     
     Emissivity                      0.940
     Density (kg/m3)                1235.0
     Specific Heat (kJ/kg/K)          1.12
     Conductivity (W/m/K)           0.2023


 Surface Conditions

   0 INERT (DEFAULT)

   1 AR
     Material List
          1  PHASE_0                                                     
          2  PHASE_1                                                     
     Layer  1
        Thickness   (m):  0.00800
        Density (kg/m3):  1683.00
        PHASE_0, Mass fraction:    1.00
     Total surface density    13.464 kg/m2
     Solid Phase Node, Layer, Coordinates(m):
                    0      1       0.0000000
                    1      1       0.0003333
                    2      1       0.0006667
                    3      1       0.0010000
                    4      1       0.0013333
                    5      1       0.0016667
                    6      1       0.0020000
                    7      1       0.0023333
                    8      1       0.0026667
                    9      1       0.0030000
                   10      1       0.0033333
                   11      1       0.0036667
                   12      1       0.0040000
                   13      1       0.0043333
                   14      1       0.0046667
                   15      1       0.0050000
                   16      1       0.0053333
                   17      1       0.0056667
                   18      1       0.0060000
                   19      1       0.0063333
                   20      1       0.0066667
                   21      1       0.0070000
                   22      1       0.0073333
                   23      1       0.0076667
                   24      1       0.0080000
     Insulated Backing

   2 OPEN
     Passive Vent to Atmosphere

   3 MIRROR
     Symmetry Plane

   4 INTERPOLATED

   5 PERIODIC

   6 HVAC

   7 MASSLESS TRACER

   8 DROPLET

   9 VEGETATION

  10 EVACUATION_OUTFLOW
     Normal Velocity (m/s)         0.000

  11 MASSLESS TARGET


 Device Coordinates

     1 Coords:     0.00     0.00     0.00, Make: null, ID: Wall thickness, Quantity: WALL THICKNESS
     2 Coords:     0.00     0.00     0.00, Make: null, ID: Wall_temperature, Quantity: WALL TEMPERATURE
     3 Coords:     0.00     0.00     0.00, Make: null, ID: Back_wall_temperature, Quantity: BACK WALL TEMPERATURE


 Radiation Model Information

   Number of control angles  104
   Time step increment         3
   Angle increment             5
   Theta band N_phi   Solid angle
     1:        4  0.12
     2:       12  0.11
     3:       16  0.13
     4:       20  0.12
     5:       20  0.12
     6:       16  0.13
     7:       12  0.11
     8:        4  0.12
   Using constant absorption coefficient of   0.000 1/m
 
 

 Run Time Diagnostics

       Time Step       1   June 29, 2018  14:47:25
       Pressure Iterations:      1
       Maximum Velocity Error:  0.14E-18 on Mesh   1 at (   2   2   0)
       ---------------------------------------------------------------
       CPU/step:     0.128E-01 s, Total CPU:        0.01 s
       Time step:    0.100E+01 s, Total time:       1.00 s
       Max CFL number:  0.00E+00 at (  0,  0,  0)
       Max divergence:  0.14E-16 at (  1,  1,  3)
       Min divergence: -0.28E-16 at (  1,  2,  1)
       Max VN  number:  0.00E+00 at (  0,  0,  0)
 
       Time Step       2   June 29, 2018  14:47:25
       Pressure Iterations:      1
       Maximum Velocity Error:  0.37E-20 on Mesh   1 at (   2   2   0)
       ---------------------------------------------------------------
       CPU/step:     0.779E-04 s, Total CPU:        0.01 s
       Time step:    0.100E+01 s, Total time:       2.00 s
       Max CFL number:  0.00E+00 at (  0,  0,  0)
       Max divergence:  0.14E-16 at (  1,  1,  3)
       Min divergence: -0.28E-16 at (  1,  2,  1)
       Max VN  number:  0.00E+00 at (  0,  0,  0)
 
       Time Step       3   June 29, 2018  14:47:25
       Pressure Iterations:      1
       Maximum Velocity Error:  0.41E-19 on Mesh   1 at (   2   2   0)
       ---------------------------------------------------------------
       CPU/step:     0.734E-04 s, Total CPU:        0.01 s
       Time step:    0.100E+01 s, Total time:       3.00 s
       Max CFL number:  0.00E+00 at (  0,  0,  0)
       Max divergence:  0.14E-16 at (  1,  1,  3)
       Min divergence: -0.28E-16 at (  1,  2,  1)
       Max VN  number:  0.00E+00 at (  0,  0,  0)
 
       Time Step       4   June 29, 2018  14:47:25
       Pressure Iterations:      1
       Maximum Velocity Error:  0.91E-19 on Mesh   1 at (   2   2   0)
       ---------------------------------------------------------------
       CPU/step:     0.420E-03 s, Total CPU:        0.01 s
       Time step:    0.100E+01 s, Total time:       4.00 s
       Max CFL number:  0.00E+00 at (  0,  0,  0)
       Max divergence:  0.14E-16 at (  1,  1,  3)
       Min divergence: -0.28E-16 at (  1,  2,  1)
       Max VN  number:  0.00E+00 at (  0,  0,  0)
 
       Time Step       5   June 29, 2018  14:47:25
       Pressure Iterations:      1
       Maximum Velocity Error:  0.17E-18 on Mesh   1 at (   2   2   0)
       ---------------------------------------------------------------
       CPU/step:     0.728E-04 s, Total CPU:        0.01 s
       Time step:    0.100E+01 s, Total time:       5.00 s
       Max CFL number:  0.00E+00 at (  0,  0,  0)
       Max divergence:  0.14E-16 at (  1,  1,  3)
       Min divergence: -0.28E-16 at (  1,  2,  1)
       Max VN  number:  0.00E+00 at (  0,  0,  0)
 
       Time Step       6   June 29, 2018  14:47:25
       Pressure Iterations:      1
       Maximum Velocity Error:  0.29E-18 on Mesh   1 at (   2   2   0)
       ---------------------------------------------------------------
       CPU/step:     0.722E-04 s, Total CPU:        0.01 s
       Time step:    0.100E+01 s, Total time:       6.00 s
       Max CFL number:  0.00E+00 at (  0,  0,  0)
       Max divergence:  0.14E-16 at (  1,  1,  3)
       Min divergence: -0.28E-16 at (  1,  2,  1)
       Max VN  number:  0.00E+00 at (  0,  0,  0)
 
       Time Step       7   June 29, 2018  14:47:25
       Pressure Iterations:      1
       Maximum Velocity Error:  0.46E-18 on Mesh   1 at (   2   2   0)
       ---------------------------------------------------------------
       CPU/step:     0.432E-03 s, Total CPU:        0.01 s
       Time step:    0.100E+01 s, Total time:       7.00 s
       Max CFL number:  0.00E+00 at (  0,  0,  0)
       Max divergence:  0.14E-16 at (  1,  1,  3)
       Min divergence: -0.28E-16 at (  1,  2,  1)
       Max VN  number:  0.00E+00 at (  0,  0,  0)
 
       Time Step       8   June 29, 2018  14:47:25
       Pressure Iterations:      1
       Maximum Velocity Error:  0.69E-18 on Mesh   1 at (   2   2   0)
       ---------------------------------------------------------------
       CPU/step:     0.685E-04 s, Total CPU:        0.01 s
       Time step:    0.100E+01 s, Total time:       8.00 s
       Max CFL number:  0.00E+00 at (  0,  0,  0)
       Max divergence:  0.14E-16 at (  1,  1,  3)
       Min divergence: -0.28E-16 at (  1,  2,  1)
       Max VN  number:  0.00E+00 at (  0,  0,  0)
 
       Time Step       9   June 29, 2018  14:47:25
       Pressure Iterations:      1
       Maximum Velocity Error:  0.10E-17 on Mesh   1 at (   2   2   0)
       ---------------------------------------------------------------
       CPU/step:     0.660E-04 s, Total CPU:        0.01 s
       Time step:    0.100E+01 s, Total time:       9.00 s
       Max CFL number:  0.00E+00 at (  0,  0,  0)
       Max divergence:  0.14E-16 at (  1,  1,  3)
       Min divergence: -0.28E-16 at (  1,  2,  1)
       Max VN  number:  0.00E+00 at (  0,  0,  0)
 
       Time Step      10   June 29, 2018  14:47:25
       Pressure Iterations:      1
       Maximum Velocity Error:  0.14E-17 on Mesh   1 at (   2   2   0)
       ---------------------------------------------------------------
       CPU/step:     0.408E-03 s, Total CPU:        0.01 s
       Time step:    0.100E+01 s, Total time:      10.00 s
       Max CFL number:  0.00E+00 at (  0,  0,  0)
       Max divergence:  0.14E-16 at (  1,  1,  3)
       Min divergence: -0.28E-16 at (  1,  2,  1)
       Max VN  number:  0.00E+00 at (  0,  0,  0)
 
       Time Step      20   June 29, 2018  14:47:25
       Pressure Iterations:      1
       Maximum Velocity Error:  0.17E-16 on Mesh   1 at (   2   2   0)
       ---------------------------------------------------------------
       CPU/step:     0.166E-03 s, Total CPU:        0.02 s
       Time step:    0.100E+01 s, Total time:      20.00 s
       Max CFL number:  0.00E+00 at (  0,  0,  0)
       Max divergence:  0.14E-16 at (  1,  1,  3)
       Min divergence: -0.28E-16 at (  1,  2,  1)
       Max VN  number:  0.00E+00 at (  0,  0,  0)
 
       Time Step      30   June 29, 2018  14:47:25
       Pressure Iterations:      1
       Maximum Velocity Error:  0.92E-16 on Mesh   1 at (   2   2   0)
       ---------------------------------------------------------------
       CPU/step:     0.184E-03 s, Total CPU:        0.02 s
       Time step:    0.100E+01 s, Total time:      30.00 s
       Max CFL number:  0.00E+00 at (  0,  0,  0)
       Max divergence:  0.14E-16 at (  1,  1,  3)
       Min divergence: -0.28E-16 at (  1,  2,  1)
       Max VN  number:  0.00E+00 at (  0,  0,  0)
 
       Time Step      40   June 29, 2018  14:47:25
       Pressure Iterations:      1
       Maximum Velocity Error:  0.33E-15 on Mesh   1 at (   2   2   0)
       ---------------------------------------------------------------
       CPU/step:     0.222E-03 s, Total CPU:        0.02 s
       Time step:    0.100E+01 s, Total time:      40.00 s
       Max CFL number:  0.00E+00 at (  0,  0,  0)
       Max divergence:  0.14E-16 at (  1,  1,  3)
       Min divergence: -0.28E-16 at (  1,  2,  1)
       Max VN  number:  0.00E+00 at (  0,  0,  0)
 
       Time Step      50   June 29, 2018  14:47:25
       Pressure Iterations:      1
       Maximum Velocity Error:  0.91E-15 on Mesh   1 at (   2   2   0)
       ---------------------------------------------------------------
       CPU/step:     0.165E-03 s, Total CPU:        0.02 s
       Time step:    0.100E+01 s, Total time:      50.00 s
       Max CFL number:  0.00E+00 at (  0,  0,  0)
       Max divergence:  0.14E-16 at (  1,  1,  3)
       Min divergence: -0.28E-16 at (  1,  2,  1)
       Max VN  number:  0.00E+00 at (  0,  0,  0)
 
       Time Step      60   June 29, 2018  14:47:25
       Pressure Iterations:      1
       Maximum Velocity Error:  0.21E-14 on Mesh   1 at (   2   2   0)
       ---------------------------------------------------------------
       CPU/step:     0.174E-03 s, Total CPU:        0.02 s
       Time step:    0.100E+01 s, Total time:      60.00 s
       Max CFL number:  0.00E+00 at (  0,  0,  0)
       Max divergence:  0.14E-16 at (  1,  1,  3)
       Min divergence: -0.28E-16 at (  1,  2,  1)
       Max VN  number:  0.00E+00 at (  0,  0,  0)
 
       Time Step      70   June 29, 2018  14:47:25
       Pressure Iterations:      1
       Maximum Velocity Error:  0.45E-14 on Mesh   1 at (   2   2   0)
       ---------------------------------------------------------------
       CPU/step:     0.251E-03 s, Total CPU:        0.03 s
       Time step:    0.100E+01 s, Total time:      70.00 s
       Max CFL number:  0.00E+00 at (  0,  0,  0)
       Max divergence:  0.14E-16 at (  1,  1,  3)
       Min divergence: -0.28E-16 at (  1,  2,  1)
       Max VN  number:  0.00E+00 at (  0,  0,  0)
 
       Time Step      80   June 29, 2018  14:47:25
       Pressure Iterations:      1
       Maximum Velocity Error:  0.86E-14 on Mesh   1 at (   2   2   0)
       ---------------------------------------------------------------
       CPU/step:     0.171E-03 s, Total CPU:        0.03 s
       Time step:    0.100E+01 s, Total time:      80.00 s
       Max CFL number:  0.00E+00 at (  0,  0,  0)
       Max divergence:  0.14E-16 at (  1,  1,  3)
       Min divergence: -0.28E-16 at (  1,  2,  1)
       Max VN  number:  0.00E+00 at (  0,  0,  0)
 
       Time Step      90   June 29, 2018  14:47:25
       Pressure Iterations:      1
       Maximum Velocity Error:  0.15E-13 on Mesh   1 at (   2   2   0)
       ---------------------------------------------------------------
       CPU/step:     0.168E-03 s, Total CPU:        0.03 s
       Time step:    0.100E+01 s, Total time:      90.00 s
       Max CFL number:  0.00E+00 at (  0,  0,  0)
       Max divergence:  0.14E-16 at (  1,  1,  3)
       Min divergence: -0.28E-16 at (  1,  2,  1)
       Max VN  number:  0.00E+00 at (  0,  0,  0)
 
       Time Step     100   June 29, 2018  14:47:25
       Pressure Iterations:      1
       Maximum Velocity Error:  0.26E-13 on Mesh   1 at (   2   2   0)
       ---------------------------------------------------------------
       CPU/step:     0.230E-03 s, Total CPU:        0.03 s
       Time step:    0.100E+01 s, Total time:     100.00 s
       Max CFL number:  0.00E+00 at (  0,  0,  0)
       Max divergence:  0.14E-16 at (  1,  1,  3)
       Min divergence: -0.28E-16 at (  1,  2,  1)
       Max VN  number:  0.00E+00 at (  0,  0,  0)
 
       Time Step     200   June 29, 2018  14:47:25
       Pressure Iterations:      1
       Maximum Velocity Error:  0.11E-11 on Mesh   1 at (   2   2   0)
       ---------------------------------------------------------------
       CPU/step:     0.414E-03 s, Total CPU:        0.07 s
       Time step:    0.100E+01 s, Total time:     200.00 s
       Max CFL number:  0.00E+00 at (  0,  0,  0)
       Max divergence:  0.14E-16 at (  1,  1,  3)
       Min divergence: -0.28E-16 at (  1,  2,  1)
       Max VN  number:  0.00E+00 at (  0,  0,  0)
 
       Time Step     300   June 29, 2018  14:47:25
       Pressure Iterations:      1
       Maximum Velocity Error:  0.16E-10 on Mesh   1 at (   2   2   0)
       ---------------------------------------------------------------
       CPU/step:     0.235E-03 s, Total CPU:        0.10 s
       Time step:    0.100E+01 s, Total time:     300.00 s
       Max CFL number:  0.00E+00 at (  0,  0,  0)
       Max divergence:  0.14E-16 at (  1,  1,  3)
       Min divergence: -0.28E-16 at (  1,  2,  1)
       Max VN  number:  0.00E+00 at (  0,  0,  0)
 
       Time Step     400   June 29, 2018  14:47:25
       Pressure Iterations:      1
       Maximum Velocity Error:  0.13E-09 on Mesh   1 at (   2   2   0)
       ---------------------------------------------------------------
       CPU/step:     0.191E-03 s, Total CPU:        0.12 s
       Time step:    0.100E+01 s, Total time:     400.00 s
       Max CFL number:  0.00E+00 at (  0,  0,  0)
       Max divergence:  0.14E-16 at (  1,  1,  3)
       Min divergence: -0.28E-16 at (  1,  2,  1)
       Max VN  number:  0.00E+00 at (  0,  0,  0)
 
       Time Step     500   June 29, 2018  14:47:25
       Pressure Iterations:      1
       Maximum Velocity Error:  0.67E-09 on Mesh   1 at (   2   2   0)
       ---------------------------------------------------------------
       CPU/step:     0.177E-03 s, Total CPU:        0.13 s
       Time step:    0.100E+01 s, Total time:     500.00 s
       Max CFL number:  0.00E+00 at (  0,  0,  0)
       Max divergence:  0.14E-16 at (  1,  1,  3)
       Min divergence: -0.28E-16 at (  1,  2,  1)
       Max VN  number:  0.00E+00 at (  0,  0,  0)
 
       Time Step     600   June 29, 2018  14:47:25
       Pressure Iterations:      1
       Maximum Velocity Error:  0.26E-08 on Mesh   1 at (   2   2   0)
       ---------------------------------------------------------------
       CPU/step:     0.175E-03 s, Total CPU:        0.15 s
       Time step:    0.100E+01 s, Total time:     600.00 s
       Max CFL number:  0.00E+00 at (  0,  0,  0)
       Max divergence:  0.14E-16 at (  1,  1,  3)
       Min divergence: -0.28E-16 at (  1,  2,  1)
       Max VN  number:  0.00E+00 at (  0,  0,  0)
 
       Time Step     700   June 29, 2018  14:47:25
       Pressure Iterations:      1
       Maximum Velocity Error:  0.77E-08 on Mesh   1 at (   2   2   0)
       ---------------------------------------------------------------
       CPU/step:     0.180E-03 s, Total CPU:        0.17 s
       Time step:    0.100E+01 s, Total time:     700.00 s
       Max CFL number:  0.00E+00 at (  0,  0,  0)
       Max divergence:  0.14E-16 at (  1,  1,  3)
       Min divergence: -0.28E-16 at (  1,  2,  1)
       Max VN  number:  0.00E+00 at (  0,  0,  0)
 
       Time Step     800   June 29, 2018  14:47:25
       Pressure Iterations:      1
       Maximum Velocity Error:  0.19E-07 on Mesh   1 at (   2   2   0)
       ---------------------------------------------------------------
       CPU/step:     0.193E-03 s, Total CPU:        0.19 s
       Time step:    0.100E+01 s, Total time:     800.00 s
       Max CFL number:  0.00E+00 at (  0,  0,  0)
       Max divergence:  0.14E-16 at (  1,  1,  3)
       Min divergence: -0.28E-16 at (  1,  2,  1)
       Max VN  number:  0.00E+00 at (  0,  0,  0)
 
       Time Step     900   June 29, 2018  14:47:25
       Pressure Iterations:      1
       Maximum Velocity Error:  0.39E-07 on Mesh   1 at (   2   2   0)
       ---------------------------------------------------------------
       CPU/step:     0.187E-03 s, Total CPU:        0.21 s
       Time step:    0.100E+01 s, Total time:     900.00 s
       Max CFL number:  0.00E+00 at (  0,  0,  0)
       Max divergence:  0.14E-16 at (  1,  1,  3)
       Min divergence: -0.28E-16 at (  1,  2,  1)
       Max VN  number:  0.00E+00 at (  0,  0,  0)
 
       Time Step    1000   June 29, 2018  14:47:25
       Pressure Iterations:      1
       Maximum Velocity Error:  0.69E-07 on Mesh   1 at (   2   2   0)
       ---------------------------------------------------------------
       CPU/step:     0.184E-03 s, Total CPU:        0.23 s
       Time step:    0.100E+01 s, Total time:    1000.00 s
       Max CFL number:  0.00E+00 at (  0,  0,  0)
       Max divergence:  0.14E-16 at (  1,  1,  3)
       Min divergence: -0.28E-16 at (  1,  2,  1)
       Max VN  number:  0.00E+00 at (  0,  0,  0)
 
       Time Step    1100   June 29, 2018  14:47:25
       Pressure Iterations:      1
       Maximum Velocity Error:  0.11E-06 on Mesh   1 at (   2   2   0)
       ---------------------------------------------------------------
       CPU/step:     0.185E-03 s, Total CPU:        0.24 s
       Time step:    0.100E+01 s, Total time:    1100.00 s
       Max CFL number:  0.00E+00 at (  0,  0,  0)
       Max divergence:  0.14E-16 at (  1,  1,  3)
       Min divergence: -0.28E-16 at (  1,  2,  1)
       Max VN  number:  0.00E+00 at (  0,  0,  0)
 
       Time Step    1200   June 29, 2018  14:47:25
       Pressure Iterations:      1
       Maximum Velocity Error:  0.15E-06 on Mesh   1 at (   2   2   0)
       ---------------------------------------------------------------
       CPU/step:     0.175E-03 s, Total CPU:        0.26 s
       Time step:    0.100E+01 s, Total time:    1200.00 s
       Max CFL number:  0.00E+00 at (  0,  0,  0)
       Max divergence:  0.14E-16 at (  1,  1,  3)
       Min divergence: -0.28E-16 at (  1,  2,  1)
       Max VN  number:  0.00E+00 at (  0,  0,  0)
 
       Time Step    1300   June 29, 2018  14:47:25
       Pressure Iterations:      1
       Maximum Velocity Error:  0.19E-06 on Mesh   1 at (   2   2   0)
       ---------------------------------------------------------------
       CPU/step:     0.176E-03 s, Total CPU:        0.28 s
       Time step:    0.100E+01 s, Total time:    1300.00 s
       Max CFL number:  0.00E+00 at (  0,  0,  0)
       Max divergence:  0.14E-16 at (  1,  1,  3)
       Min divergence: -0.28E-16 at (  1,  2,  1)
       Max VN  number:  0.00E+00 at (  0,  0,  0)
 
       Time Step    1400   June 29, 2018  14:47:25
       Pressure Iterations:      1
       Maximum Velocity Error:  0.23E-06 on Mesh   1 at (   2   2   0)
       ---------------------------------------------------------------
       CPU/step:     0.187E-03 s, Total CPU:        0.30 s
       Time step:    0.100E+01 s, Total time:    1400.00 s
       Max CFL number:  0.00E+00 at (  0,  0,  0)
       Max divergence:  0.14E-16 at (  1,  1,  3)
       Min divergence: -0.28E-16 at (  1,  2,  1)
       Max VN  number:  0.00E+00 at (  0,  0,  0)
 
       Time Step    1500   June 29, 2018  14:47:25
       Pressure Iterations:      1
       Maximum Velocity Error:  0.26E-06 on Mesh   1 at (   2   2   0)
       ---------------------------------------------------------------
       CPU/step:     0.180E-03 s, Total CPU:        0.32 s
       Time step:    0.100E+01 s, Total time:    1500.00 s
       Max CFL number:  0.00E+00 at (  0,  0,  0)
       Max divergence:  0.14E-16 at (  1,  1,  3)
       Min divergence: -0.28E-16 at (  1,  2,  1)
       Max VN  number:  0.00E+00 at (  0,  0,  0)
 
       Time Step    1600   June 29, 2018  14:47:25
       Pressure Iterations:      1
       Maximum Velocity Error:  0.27E-06 on Mesh   1 at (   2   2   0)
       ---------------------------------------------------------------
       CPU/step:     0.187E-03 s, Total CPU:        0.33 s
       Time step:    0.100E+01 s, Total time:    1600.00 s
       Max CFL number:  0.00E+00 at (  0,  0,  0)
       Max divergence:  0.14E-16 at (  1,  1,  3)
       Min divergence: -0.28E-16 at (  1,  2,  1)
       Max VN  number:  0.00E+00 at (  0,  0,  0)
 
       Time Step    1700   June 29, 2018  14:47:25
       Pressure Iterations:      1
       Maximum Velocity Error:  0.27E-06 on Mesh   1 at (   2   2   0)
       ---------------------------------------------------------------
       CPU/step:     0.197E-03 s, Total CPU:        0.35 s
       Time step:    0.100E+01 s, Total time:    1700.00 s
       Max CFL number:  0.00E+00 at (  0,  0,  0)
       Max divergence:  0.14E-16 at (  1,  1,  3)
       Min divergence: -0.28E-16 at (  1,  2,  1)
       Max VN  number:  0.00E+00 at (  0,  0,  0)
 
       Time Step    1800   June 29, 2018  14:47:25
       Pressure Iterations:      1
       Maximum Velocity Error:  0.26E-06 on Mesh   1 at (   2   2   0)
       ---------------------------------------------------------------
       CPU/step:     0.188E-03 s, Total CPU:        0.37 s
       Time step:    0.100E+01 s, Total time:    1800.00 s
       Max CFL number:  0.00E+00 at (  0,  0,  0)
       Max divergence:  0.14E-16 at (  1,  1,  3)
       Min divergence: -0.28E-16 at (  1,  2,  1)
       Max VN  number:  0.00E+00 at (  0,  0,  0)
 
       Time Step    1900   June 29, 2018  14:47:25
       Pressure Iterations:      1
       Maximum Velocity Error:  0.24E-06 on Mesh   1 at (   2   2   0)
       ---------------------------------------------------------------
       CPU/step:     0.194E-03 s, Total CPU:        0.39 s
       Time step:    0.100E+01 s, Total time:    1900.00 s
       Max CFL number:  0.00E+00 at (  0,  0,  0)
       Max divergence:  0.14E-16 at (  1,  1,  3)
       Min divergence: -0.28E-16 at (  1,  2,  1)
       Max VN  number:  0.00E+00 at (  0,  0,  0)
 
       Time Step    2000   June 29, 2018  14:47:25
       Pressure Iterations:      1
       Maximum Velocity Error:  0.22E-06 on Mesh   1 at (   2   2   0)
       ---------------------------------------------------------------
       CPU/step:     0.189E-03 s, Total CPU:        0.41 s
       Time step:    0.100E+01 s, Total time:    2000.00 s
       Max CFL number:  0.00E+00 at (  0,  0,  0)
       Max divergence:  0.14E-16 at (  1,  1,  3)
       Min divergence: -0.28E-16 at (  1,  2,  1)
       Max VN  number:  0.00E+00 at (  0,  0,  0)
 
       Time Step    2100   June 29, 2018  14:47:25
       Pressure Iterations:      1
       Maximum Velocity Error:  0.19E-06 on Mesh   1 at (   2   2   0)
       ---------------------------------------------------------------
       CPU/step:     0.182E-03 s, Total CPU:        0.43 s
       Time step:    0.100E+01 s, Total time:    2100.00 s
       Max CFL number:  0.00E+00 at (  0,  0,  0)
       Max divergence:  0.14E-16 at (  1,  1,  3)
       Min divergence: -0.28E-16 at (  1,  2,  1)
       Max VN  number:  0.00E+00 at (  0,  0,  0)
 
       Time Step    2200   June 29, 2018  14:47:25
       Pressure Iterations:      1
       Maximum Velocity Error:  0.17E-06 on Mesh   1 at (   2   2   0)
       ---------------------------------------------------------------
       CPU/step:     0.196E-03 s, Total CPU:        0.45 s
       Time step:    0.100E+01 s, Total time:    2200.00 s
       Max CFL number:  0.00E+00 at (  0,  0,  0)
       Max divergence:  0.14E-16 at (  1,  1,  3)
       Min divergence: -0.28E-16 at (  1,  2,  1)
       Max VN  number:  0.00E+00 at (  0,  0,  0)
 
       Time Step    2300   June 29, 2018  14:47:25
       Pressure Iterations:      1
       Maximum Velocity Error:  0.14E-06 on Mesh   1 at (   2   2   0)
       ---------------------------------------------------------------
       CPU/step:     0.175E-03 s, Total CPU:        0.47 s
       Time step:    0.100E+01 s, Total time:    2300.00 s
       Max CFL number:  0.00E+00 at (  0,  0,  0)
       Max divergence:  0.14E-16 at (  1,  1,  3)
       Min divergence: -0.28E-16 at (  1,  2,  1)
       Max VN  number:  0.00E+00 at (  0,  0,  0)
 
       Time Step    2400   June 29, 2018  14:47:25
       Pressure Iterations:      1
       Maximum Velocity Error:  0.12E-06 on Mesh   1 at (   2   2   0)
       ---------------------------------------------------------------
       CPU/step:     0.185E-03 s, Total CPU:        0.49 s
       Time step:    0.100E+01 s, Total time:    2400.00 s
       Max CFL number:  0.00E+00 at (  0,  0,  0)
       Max divergence:  0.14E-16 at (  1,  1,  3)
       Min divergence: -0.28E-16 at (  1,  2,  1)
       Max VN  number:  0.00E+00 at (  0,  0,  0)
 
       Time Step    2500   June 29, 2018  14:47:25
       Pressure Iterations:      1
       Maximum Velocity Error:  0.95E-07 on Mesh   1 at (   2   2   0)
       ---------------------------------------------------------------
       CPU/step:     0.188E-03 s, Total CPU:        0.50 s
       Time step:    0.100E+01 s, Total time:    2500.00 s
       Max CFL number:  0.00E+00 at (  0,  0,  0)
       Max divergence:  0.14E-16 at (  1,  1,  3)
       Min divergence: -0.28E-16 at (  1,  2,  1)
       Max VN  number:  0.00E+00 at (  0,  0,  0)
 
       Time Step    2600   June 29, 2018  14:47:25
       Pressure Iterations:      1
       Maximum Velocity Error:  0.76E-07 on Mesh   1 at (   2   2   0)
       ---------------------------------------------------------------
       CPU/step:     0.196E-03 s, Total CPU:        0.52 s
       Time step:    0.100E+01 s, Total time:    2600.00 s
       Max CFL number:  0.00E+00 at (  0,  0,  0)
       Max divergence:  0.14E-16 at (  1,  1,  3)
       Min divergence: -0.28E-16 at (  1,  2,  1)
       Max VN  number:  0.00E+00 at (  0,  0,  0)
 
       Time Step    2700   June 29, 2018  14:47:25
       Pressure Iterations:      1
       Maximum Velocity Error:  0.60E-07 on Mesh   1 at (   2   2   0)
       ---------------------------------------------------------------
       CPU/step:     0.185E-03 s, Total CPU:        0.54 s
       Time step:    0.100E+01 s, Total time:    2700.00 s
       Max CFL number:  0.00E+00 at (  0,  0,  0)
       Max divergence:  0.14E-16 at (  1,  1,  3)
       Min divergence: -0.28E-16 at (  1,  2,  1)
       Max VN  number:  0.00E+00 at (  0,  0,  0)
 
       Time Step    2800   June 29, 2018  14:47:25
       Pressure Iterations:      1
       Maximum Velocity Error:  0.46E-07 on Mesh   1 at (   2   2   0)
       ---------------------------------------------------------------
       CPU/step:     0.176E-03 s, Total CPU:        0.56 s
       Time step:    0.100E+01 s, Total time:    2800.00 s
       Max CFL number:  0.00E+00 at (  0,  0,  0)
       Max divergence:  0.14E-16 at (  1,  1,  3)
       Min divergence: -0.28E-16 at (  1,  2,  1)
       Max VN  number:  0.00E+00 at (  0,  0,  0)
 
       Time Step    2900   June 29, 2018  14:47:26
       Pressure Iterations:      1
       Maximum Velocity Error:  0.34E-07 on Mesh   1 at (   2   2   0)
       ---------------------------------------------------------------
       CPU/step:     0.173E-03 s, Total CPU:        0.58 s
       Time step:    0.100E+01 s, Total time:    2900.00 s
       Max CFL number:  0.00E+00 at (  0,  0,  0)
       Max divergence:  0.14E-16 at (  1,  1,  3)
       Min divergence: -0.28E-16 at (  1,  2,  1)
       Max VN  number:  0.00E+00 at (  0,  0,  0)
 
       Time Step    3000   June 29, 2018  14:47:26
       Pressure Iterations:      1
       Maximum Velocity Error:  0.24E-07 on Mesh   1 at (   2   2   0)
       ---------------------------------------------------------------
       CPU/step:     0.178E-03 s, Total CPU:        0.59 s
       Time step:    0.100E+01 s, Total time:    3000.00 s
       Max CFL number:  0.00E+00 at (  0,  0,  0)
       Max divergence:  0.14E-16 at (  1,  1,  3)
       Min divergence: -0.28E-16 at (  1,  2,  1)
       Max VN  number:  0.00E+00 at (  0,  0,  0)
 
       Time Step    3100   June 29, 2018  14:47:26
       Pressure Iterations:      1
       Maximum Velocity Error:  0.16E-07 on Mesh   1 at (   2   2   0)
       ---------------------------------------------------------------
       CPU/step:     0.195E-03 s, Total CPU:        0.61 s
       Time step:    0.100E+01 s, Total time:    3100.00 s
       Max CFL number:  0.00E+00 at (  0,  0,  0)
       Max divergence:  0.14E-16 at (  1,  1,  3)
       Min divergence: -0.28E-16 at (  1,  2,  1)
       Max VN  number:  0.00E+00 at (  0,  0,  0)
 
       Time Step    3200   June 29, 2018  14:47:26
       Pressure Iterations:      1
       Maximum Velocity Error:  0.97E-08 on Mesh   1 at (   2   2   0)
       ---------------------------------------------------------------
       CPU/step:     0.192E-03 s, Total CPU:        0.63 s
       Time step:    0.100E+01 s, Total time:    3200.00 s
       Max CFL number:  0.00E+00 at (  0,  0,  0)
       Max divergence:  0.14E-16 at (  1,  1,  3)
       Min divergence: -0.28E-16 at (  1,  2,  1)
       Max VN  number:  0.00E+00 at (  0,  0,  0)
 
       Time Step    3300   June 29, 2018  14:47:26
       Pressure Iterations:      1
       Maximum Velocity Error:  0.44E-08 on Mesh   1 at (   2   2   0)
       ---------------------------------------------------------------
       CPU/step:     0.181E-03 s, Total CPU:        0.65 s
       Time step:    0.100E+01 s, Total time:    3300.00 s
       Max CFL number:  0.00E+00 at (  0,  0,  0)
       Max divergence:  0.14E-16 at (  1,  1,  3)
       Min divergence: -0.28E-16 at (  1,  2,  1)
       Max VN  number:  0.00E+00 at (  0,  0,  0)
 
       Time Step    3400   June 29, 2018  14:47:26
       Pressure Iterations:      1
       Maximum Velocity Error:  0.13E-10 on Mesh   1 at (   2   2   0)
       ---------------------------------------------------------------
       CPU/step:     0.191E-03 s, Total CPU:        0.67 s
       Time step:    0.100E+01 s, Total time:    3400.00 s
       Max CFL number:  0.00E+00 at (  0,  0,  0)
       Max divergence:  0.14E-16 at (  1,  1,  3)
       Min divergence: -0.28E-16 at (  1,  2,  1)
       Max VN  number:  0.00E+00 at (  0,  0,  0)
 
       Time Step    3500   June 29, 2018  14:47:26
       Pressure Iterations:      1
       Maximum Velocity Error:  0.35E-08 on Mesh   1 at (   2   2   0)
       ---------------------------------------------------------------
       CPU/step:     0.190E-03 s, Total CPU:        0.69 s
       Time step:    0.100E+01 s, Total time:    3500.00 s
       Max CFL number:  0.00E+00 at (  0,  0,  0)
       Max divergence:  0.14E-16 at (  1,  1,  3)
       Min divergence: -0.28E-16 at (  1,  2,  1)
       Max VN  number:  0.00E+00 at (  0,  0,  0)
 
       Time Step    3600   June 29, 2018  14:47:26
       Pressure Iterations:      1
       Maximum Velocity Error:  0.64E-08 on Mesh   1 at (   2   2   0)
       ---------------------------------------------------------------
       CPU/step:     0.179E-03 s, Total CPU:        0.71 s
       Time step:    0.100E+01 s, Total time:    3600.00 s
       Max CFL number:  0.00E+00 at (  0,  0,  0)
       Max divergence:  0.14E-16 at (  1,  1,  3)
       Min divergence: -0.28E-16 at (  1,  2,  1)
       Max VN  number:  0.00E+00 at (  0,  0,  0)
 
       Time Step    3700   June 29, 2018  14:47:26
       Pressure Iterations:      1
       Maximum Velocity Error:  0.87E-08 on Mesh   1 at (   2   2   0)
       ---------------------------------------------------------------
       CPU/step:     0.176E-03 s, Total CPU:        0.72 s
       Time step:    0.100E+01 s, Total time:    3700.00 s
       Max CFL number:  0.00E+00 at (  0,  0,  0)
       Max divergence:  0.14E-16 at (  1,  1,  3)
       Min divergence: -0.28E-16 at (  1,  2,  1)
       Max VN  number:  0.00E+00 at (  0,  0,  0)
 
       Time Step    3800   June 29, 2018  14:47:26
       Pressure Iterations:      1
       Maximum Velocity Error:  0.11E-07 on Mesh   1 at (   2   2   0)
       ---------------------------------------------------------------
       CPU/step:     0.174E-03 s, Total CPU:        0.74 s
       Time step:    0.100E+01 s, Total time:    3800.00 s
       Max CFL number:  0.00E+00 at (  0,  0,  0)
       Max divergence:  0.14E-16 at (  1,  1,  3)
       Min divergence: -0.28E-16 at (  1,  2,  1)
       Max VN  number:  0.00E+00 at (  0,  0,  0)
 
       Time Step    3900   June 29, 2018  14:47:26
       Pressure Iterations:      1
       Maximum Velocity Error:  0.12E-07 on Mesh   1 at (   2   2   0)
       ---------------------------------------------------------------
       CPU/step:     0.189E-03 s, Total CPU:        0.76 s
       Time step:    0.100E+01 s, Total time:    3900.00 s
       Max CFL number:  0.00E+00 at (  0,  0,  0)
       Max divergence:  0.14E-16 at (  1,  1,  3)
       Min divergence: -0.28E-16 at (  1,  2,  1)
       Max VN  number:  0.00E+00 at (  0,  0,  0)
 
       Time Step    4000   June 29, 2018  14:47:26
       Pressure Iterations:      1
       Maximum Velocity Error:  0.13E-07 on Mesh   1 at (   2   2   0)
       ---------------------------------------------------------------
       CPU/step:     0.191E-03 s, Total CPU:        0.78 s
       Time step:    0.100E+01 s, Total time:    4000.00 s
       Max CFL number:  0.00E+00 at (  0,  0,  0)
       Max divergence:  0.14E-16 at (  1,  1,  3)
       Min divergence: -0.28E-16 at (  1,  2,  1)
       Max VN  number:  0.00E+00 at (  0,  0,  0)
 
       Time Step    4100   June 29, 2018  14:47:26
       Pressure Iterations:      1
       Maximum Velocity Error:  0.14E-07 on Mesh   1 at (   2   2   0)
       ---------------------------------------------------------------
       CPU/step:     0.183E-03 s, Total CPU:        0.80 s
       Time step:    0.100E+01 s, Total time:    4100.00 s
       Max CFL number:  0.00E+00 at (  0,  0,  0)
       Max divergence:  0.14E-16 at (  1,  1,  3)
       Min divergence: -0.28E-16 at (  1,  2,  1)
       Max VN  number:  0.00E+00 at (  0,  0,  0)
 
       Time Step    4200   June 29, 2018  14:47:26
       Pressure Iterations:      1
       Maximum Velocity Error:  0.15E-07 on Mesh   1 at (   2   2   0)
       ---------------------------------------------------------------
       CPU/step:     0.189E-03 s, Total CPU:        0.82 s
       Time step:    0.100E+01 s, Total time:    4200.00 s
       Max CFL number:  0.00E+00 at (  0,  0,  0)
       Max divergence:  0.14E-16 at (  1,  1,  3)
       Min divergence: -0.28E-16 at (  1,  2,  1)
       Max VN  number:  0.00E+00 at (  0,  0,  0)
 
       Time Step    4300   June 29, 2018  14:47:26
       Pressure Iterations:      1
       Maximum Velocity Error:  0.15E-07 on Mesh   1 at (   2   2   0)
       ---------------------------------------------------------------
       CPU/step:     0.187E-03 s, Total CPU:        0.84 s
       Time step:    0.100E+01 s, Total time:    4300.00 s
       Max CFL number:  0.00E+00 at (  0,  0,  0)
       Max divergence:  0.14E-16 at (  1,  1,  3)
       Min divergence: -0.28E-16 at (  1,  2,  1)
       Max VN  number:  0.00E+00 at (  0,  0,  0)
 
       Time Step    4400   June 29, 2018  14:47:26
       Pressure Iterations:      1
       Maximum Velocity Error:  0.16E-07 on Mesh   1 at (   2   2   0)
       ---------------------------------------------------------------
       CPU/step:     0.203E-03 s, Total CPU:        0.86 s
       Time step:    0.100E+01 s, Total time:    4400.00 s
       Max CFL number:  0.00E+00 at (  0,  0,  0)
       Max divergence:  0.14E-16 at (  1,  1,  3)
       Min divergence: -0.28E-16 at (  1,  2,  1)
       Max VN  number:  0.00E+00 at (  0,  0,  0)
 
       Time Step    4500   June 29, 2018  14:47:26
       Pressure Iterations:      1
       Maximum Velocity Error:  0.16E-07 on Mesh   1 at (   2   2   0)
       ---------------------------------------------------------------
       CPU/step:     0.184E-03 s, Total CPU:        0.87 s
       Time step:    0.100E+01 s, Total time:    4500.00 s
       Max CFL number:  0.00E+00 at (  0,  0,  0)
       Max divergence:  0.14E-16 at (  1,  1,  3)
       Min divergence: -0.28E-16 at (  1,  2,  1)
       Max VN  number:  0.00E+00 at (  0,  0,  0)
 
       Time Step    4600   June 29, 2018  14:47:26
       Pressure Iterations:      1
       Maximum Velocity Error:  0.16E-07 on Mesh   1 at (   2   2   0)
       ---------------------------------------------------------------
       CPU/step:     0.189E-03 s, Total CPU:        0.89 s
       Time step:    0.100E+01 s, Total time:    4600.00 s
       Max CFL number:  0.00E+00 at (  0,  0,  0)
       Max divergence:  0.14E-16 at (  1,  1,  3)
       Min divergence: -0.28E-16 at (  1,  2,  1)
       Max VN  number:  0.00E+00 at (  0,  0,  0)
 
       Time Step    4700   June 29, 2018  14:47:26
       Pressure Iterations:      1
       Maximum Velocity Error:  0.17E-07 on Mesh   1 at (   2   2   0)
       ---------------------------------------------------------------
       CPU/step:     0.181E-03 s, Total CPU:        0.91 s
       Time step:    0.100E+01 s, Total time:    4700.00 s
       Max CFL number:  0.00E+00 at (  0,  0,  0)
       Max divergence:  0.14E-16 at (  1,  1,  3)
       Min divergence: -0.28E-16 at (  1,  2,  1)
       Max VN  number:  0.00E+00 at (  0,  0,  0)
 
       Time Step    4800   June 29, 2018  14:47:26
       Pressure Iterations:      1
       Maximum Velocity Error:  0.17E-07 on Mesh   1 at (   2   2   0)
       ---------------------------------------------------------------
       CPU/step:     0.182E-03 s, Total CPU:        0.93 s
       Time step:    0.100E+01 s, Total time:    4800.00 s
       Max CFL number:  0.00E+00 at (  0,  0,  0)
       Max divergence:  0.14E-16 at (  1,  1,  3)
       Min divergence: -0.28E-16 at (  1,  2,  1)
       Max VN  number:  0.00E+00 at (  0,  0,  0)
 
       Time Step    4900   June 29, 2018  14:47:26
       Pressure Iterations:      1
       Maximum Velocity Error:  0.17E-07 on Mesh   1 at (   2   2   0)
       ---------------------------------------------------------------
       CPU/step:     0.183E-03 s, Total CPU:        0.95 s
       Time step:    0.100E+01 s, Total time:    4900.00 s
       Max CFL number:  0.00E+00 at (  0,  0,  0)
       Max divergence:  0.14E-16 at (  1,  1,  3)
       Min divergence: -0.28E-16 at (  1,  2,  1)
       Max VN  number:  0.00E+00 at (  0,  0,  0)
 
       Time Step    5000   June 29, 2018  14:47:26
       Pressure Iterations:      1
       Maximum Velocity Error:  0.17E-07 on Mesh   1 at (   2   2   0)
       ---------------------------------------------------------------
       CPU/step:     0.219E-03 s, Total CPU:        0.97 s
       Time step:    0.100E+01 s, Total time:    5000.00 s
       Max CFL number:  0.00E+00 at (  0,  0,  0)
       Max divergence:  0.14E-16 at (  1,  1,  3)
       Min divergence: -0.28E-16 at (  1,  2,  1)
       Max VN  number:  0.00E+00 at (  0,  0,  0)
 
       Time Step    5100   June 29, 2018  14:47:26
       Pressure Iterations:      1
       Maximum Velocity Error:  0.17E-07 on Mesh   1 at (   2   2   0)
       ---------------------------------------------------------------
       CPU/step:     0.185E-03 s, Total CPU:        0.99 s
       Time step:    0.100E+01 s, Total time:    5100.00 s
       Max CFL number:  0.00E+00 at (  0,  0,  0)
       Max divergence:  0.14E-16 at (  1,  1,  3)
       Min divergence: -0.28E-16 at (  1,  2,  1)
       Max VN  number:  0.00E+00 at (  0,  0,  0)
 
       Time Step    5200   June 29, 2018  14:47:26
       Pressure Iterations:      1
       Maximum Velocity Error:  0.17E-07 on Mesh   1 at (   2   2   0)
       ---------------------------------------------------------------
       CPU/step:     0.180E-03 s, Total CPU:        1.01 s
       Time step:    0.100E+01 s, Total time:    5200.00 s
       Max CFL number:  0.00E+00 at (  0,  0,  0)
       Max divergence:  0.14E-16 at (  1,  1,  3)
       Min divergence: -0.28E-16 at (  1,  2,  1)
       Max VN  number:  0.00E+00 at (  0,  0,  0)
 
       Time Step    5300   June 29, 2018  14:47:26
       Pressure Iterations:      1
       Maximum Velocity Error:  0.17E-07 on Mesh   1 at (   2   2   0)
       ---------------------------------------------------------------
       CPU/step:     0.185E-03 s, Total CPU:        1.03 s
       Time step:    0.100E+01 s, Total time:    5300.00 s
       Max CFL number:  0.00E+00 at (  0,  0,  0)
       Max divergence:  0.14E-16 at (  1,  1,  3)
       Min divergence: -0.28E-16 at (  1,  2,  1)
       Max VN  number:  0.00E+00 at (  0,  0,  0)
 
       Time Step    5400   June 29, 2018  14:47:26
       Pressure Iterations:      1
       Maximum Velocity Error:  0.17E-07 on Mesh   1 at (   2   2   0)
       ---------------------------------------------------------------
       CPU/step:     0.184E-03 s, Total CPU:        1.04 s
       Time step:    0.100E+01 s, Total time:    5400.00 s
       Max CFL number:  0.00E+00 at (  0,  0,  0)
       Max divergence:  0.14E-16 at (  1,  1,  3)
       Min divergence: -0.28E-16 at (  1,  2,  1)
       Max VN  number:  0.00E+00 at (  0,  0,  0)
 
       Time Step    5500   June 29, 2018  14:47:26
       Pressure Iterations:      1
       Maximum Velocity Error:  0.17E-07 on Mesh   1 at (   2   2   0)
       ---------------------------------------------------------------
       CPU/step:     0.177E-03 s, Total CPU:        1.06 s
       Time step:    0.100E+01 s, Total time:    5500.00 s
       Max CFL number:  0.00E+00 at (  0,  0,  0)
       Max divergence:  0.14E-16 at (  1,  1,  3)
       Min divergence: -0.28E-16 at (  1,  2,  1)
       Max VN  number:  0.00E+00 at (  0,  0,  0)
 
       Time Step    5600   June 29, 2018  14:47:26
       Pressure Iterations:      1
       Maximum Velocity Error:  0.17E-07 on Mesh   1 at (   2   2   0)
       ---------------------------------------------------------------
       CPU/step:     0.172E-03 s, Total CPU:        1.08 s
       Time step:    0.100E+01 s, Total time:    5600.00 s
       Max CFL number:  0.00E+00 at (  0,  0,  0)
       Max divergence:  0.14E-16 at (  1,  1,  3)
       Min divergence: -0.28E-16 at (  1,  2,  1)
       Max VN  number:  0.00E+00 at (  0,  0,  0)
 
       Time Step    5700   June 29, 2018  14:47:26
       Pressure Iterations:      1
       Maximum Velocity Error:  0.17E-07 on Mesh   1 at (   2   2   0)
       ---------------------------------------------------------------
       CPU/step:     0.172E-03 s, Total CPU:        1.10 s
       Time step:    0.100E+01 s, Total time:    5700.00 s
       Max CFL number:  0.00E+00 at (  0,  0,  0)
       Max divergence:  0.14E-16 at (  1,  1,  3)
       Min divergence: -0.28E-16 at (  1,  2,  1)
       Max VN  number:  0.00E+00 at (  0,  0,  0)
 
       Time Step    5800   June 29, 2018  14:47:26
       Pressure Iterations:      1
       Maximum Velocity Error:  0.17E-07 on Mesh   1 at (   2   2   0)
       ---------------------------------------------------------------
       CPU/step:     0.178E-03 s, Total CPU:        1.11 s
       Time step:    0.100E+01 s, Total time:    5800.00 s
       Max CFL number:  0.00E+00 at (  0,  0,  0)
       Max divergence:  0.14E-16 at (  1,  1,  3)
       Min divergence: -0.28E-16 at (  1,  2,  1)
       Max VN  number:  0.00E+00 at (  0,  0,  0)
 
       Time Step    5900   June 29, 2018  14:47:26
       Pressure Iterations:      1
       Maximum Velocity Error:  0.17E-07 on Mesh   1 at (   2   2   0)
       ---------------------------------------------------------------
       CPU/step:     0.181E-03 s, Total CPU:        1.13 s
       Time step:    0.100E+01 s, Total time:    5900.00 s
       Max CFL number:  0.00E+00 at (  0,  0,  0)
       Max divergence:  0.14E-16 at (  1,  1,  3)
       Min divergence: -0.28E-16 at (  1,  2,  1)
       Max VN  number:  0.00E+00 at (  0,  0,  0)
 
       Time Step    6000   June 29, 2018  14:47:26
       Pressure Iterations:      1
       Maximum Velocity Error:  0.17E-07 on Mesh   1 at (   2   2   0)
       ---------------------------------------------------------------
       CPU/step:     0.178E-03 s, Total CPU:        1.15 s
       Time step:    0.100E+01 s, Total time:    6000.00 s
       Max CFL number:  0.00E+00 at (  0,  0,  0)
       Max divergence:  0.14E-16 at (  1,  1,  3)
       Min divergence: -0.28E-16 at (  1,  2,  1)
       Max VN  number:  0.00E+00 at (  0,  0,  0)
 


 DEVICE Activation Times



 CPU Time Usage, Mesh   1

                 CPU (s)        %  
       ----------------------------
       MAIN         1.47     100.00
       DIVG         0.01       0.35
       MASS         0.00       0.00
       VELO         0.00       0.00
       PRES         0.04       2.45
       WALL         0.19      12.92
       DUMP         0.15      10.32
       PART         0.00       0.00
       RADI         0.75      50.54
       FIRE         0.00       0.00
       COMM         0.02       1.35
       SubTot       1.15      77.93


 Time Stepping Wall Clock Time (s):        1.391
 Total Elapsed Wall Clock Time (s):        1.491

STOP: FDS completed successfully (CHID: E_GlassOldConstHybrid10KW_s0)
