
 Fire Dynamics Simulator

 Compilation Date : Sat, 11 Apr 2015
 Current Date     : June 29, 2018  15:47:29
 Version          : FDS 6.2.0
 SVN Revision No. : 22343

 MPI Enabled; Number of MPI Processes:     1
 OpenMP Enabled; Number of OpenMP Threads:   4

 Job TITLE        : FDS Analysis for Optimizing on Cone Calorimeter Data
 Job ID string    : E_GlassOldConstWide100KW_s0


 Grid Dimensions, Mesh     1

   Cells in the X Direction             3
   Cells in the Y Direction             3
   Cells in the Z Direction             3


 Physical Dimensions, Mesh     1

   Length (m)                       0.305
   Width  (m)                       0.305
   Height (m)                       0.305
   Initial Time Step (s)            0.100


 Miscellaneous Parameters

   Simulation Start Time (s)          0.0
   Simulation End Time (s)         1500.0
   LES Calculation
   Deardorff Model (C_DEARDORFF)     0.10
   Turbulent Prandtl Number          0.50
   Turbulent Schmidt Number          0.50
   Ambient Temperature (C)          25.00


 Mass Fraction Transformation Matrix to Convert Species Mixtures (Columns) to Primitive Species (Rows)

                         AIR       OFF_GAS 
   NITROGEN              0.783705  0.000000
   OXYGEN                0.208484  0.000000
   CARBON DIOXIDE        0.000591  0.000000
   WATER VAPOR           0.007221  0.000000
   OFF_GAS               0.000000  1.000000


 Primitive Species Information

   NITROGEN                                                    
   Gas Species
   Molecular Weight (g/mol)            28.01340
   Ambient Density (kg/m^3)            1.145
   Enthalpy of Formation (J/kg)        0.00E+00

   OXYGEN                                                      
   Gas Species
   Molecular Weight (g/mol)            31.99880
   Ambient Density (kg/m^3)            1.308
   Enthalpy of Formation (J/kg)        0.00E+00

   CARBON DIOXIDE                                              
   Gas Species
   Molecular Weight (g/mol)            44.00950
   Ambient Density (kg/m^3)            1.799
   Enthalpy of Formation (J/kg)       -8.94E+06

   WATER VAPOR                                                 
   Gas Species
   Molecular Weight (g/mol)            18.01528
   Ambient Density (kg/m^3)            0.736
   Enthalpy of Formation (J/kg)       -1.34E+07

   OFF_GAS                                                     
   Gas Species
   Molecular Weight (g/mol)            28.84852
   Ambient Density (kg/m^3)            1.179
   Enthalpy of Formation (J/kg)     not specified


 Tracked (Lumped) Species Information

   AIR                                                         
   Molecular Weight (g/mol)            28.64864
   Ambient Density (kg/m^3)            1.171
   Initial Mass Fraction               1.000
   Enthalpy of Formation (J/kg)     -1.02E+05

   Sub Species                    Mass Fraction     Mole Fraction
   NITROGEN                       7.837049E-01      8.014765E-01
   OXYGEN                         2.084836E-01      1.866562E-01
   CARBON DIOXIDE                 5.907036E-04      3.845274E-04
   WATER VAPOR                    7.220804E-03      1.148282E-02
 
   Viscosity (kg/m/s)   Ambient (293 K):  1.81E-05
                                  500 K:  2.59E-05
                                 1000 K:  4.10E-05
                                 1500 K:  5.34E-05
   Therm. Cond. (W/m/K) Ambient (293 K):  2.57E-02
                                  500 K:  3.79E-02
                                 1000 K:  6.61E-02
                                 1500 K:  9.19E-02
   Spec. Heat (J/kg/K)  Ambient (293 K):  1.02E+03
                                  500 K:  1.04E+03
                                 1000 K:  1.15E+03
                                 1500 K:  1.23E+03
   Diff. Coeff. (m^2/s) Ambient (293 K):  2.05E-05
                                  500 K:  4.96E-05
                                 1000 K:  1.58E-04
                                 1500 K:  3.09E-04

   OFF_GAS                                                     
   Molecular Weight (g/mol)            28.84852
   Ambient Density (kg/m^3)            1.179
   Initial Mass Fraction               0.000
   Enthalpy of Formation (J/kg)     -2.00E+23

   Sub Species                    Mass Fraction     Mole Fraction
   OFF_GAS                        1.000000E+00      1.000000E+00
 
   Viscosity (kg/m/s)   Ambient (293 K):  1.83E-05
                                  500 K:  2.63E-05
                                 1000 K:  4.14E-05
                                 1500 K:  5.38E-05
   Therm. Cond. (W/m/K) Ambient (293 K):  3.70E-02
                                  500 K:  5.30E-02
                                 1000 K:  8.35E-02
                                 1500 K:  1.09E-01
   Spec. Heat (J/kg/K)  Ambient (293 K):  1.01E+03
                                  500 K:  1.01E+03
                                 1000 K:  1.01E+03
                                 1500 K:  1.01E+03
   Diff. Coeff. (m^2/s) Ambient (293 K):  2.05E-05
                                  500 K:  4.97E-05
                                 1000 K:  1.58E-04
                                 1500 K:  3.10E-04


 Material Information

   1 PHASE_0                                                     
     Emissivity                      1.000
     Density (kg/m3)                1683.0
     Specific Heat (kJ/kg/K)          5.28
     Conductivity (W/m/K)           0.9350
     Absorption coefficient (1/m)  2500.18
     Reaction  1
        Residue: PHASE_1, Material Index:  2, Yield:  0.734
        Gaseous Yields:
        AIR                                                         :     0.00
        OFF_GAS                                                     :     0.27
        A (1/s)    :  1.65E+12
        E (kJ/kmol):  1.30E+05
        H_R (kJ/kg):  1.78E+02
        N_S        :     2.30

   2 PHASE_1                                                     
     Emissivity                      0.940
     Density (kg/m3)                1235.0
     Specific Heat (kJ/kg/K)          0.41
     Conductivity (W/m/K)           0.1460


 Surface Conditions

   0 INERT (DEFAULT)

   1 AR
     Material List
          1  PHASE_0                                                     
          2  PHASE_1                                                     
     Layer  1
        Thickness   (m):  0.00800
        Density (kg/m3):  1683.00
        PHASE_0, Mass fraction:    1.00
     Total surface density    13.464 kg/m2
     Solid Phase Node, Layer, Coordinates(m):
                    0      1       0.0000000
                    1      1       0.0003200
                    2      1       0.0006400
                    3      1       0.0009600
                    4      1       0.0012800
                    5      1       0.0016000
                    6      1       0.0019200
                    7      1       0.0022400
                    8      1       0.0025600
                    9      1       0.0028800
                   10      1       0.0032000
                   11      1       0.0035200
                   12      1       0.0038400
                   13      1       0.0041600
                   14      1       0.0044800
                   15      1       0.0048000
                   16      1       0.0051200
                   17      1       0.0054400
                   18      1       0.0057600
                   19      1       0.0060800
                   20      1       0.0064000
                   21      1       0.0067200
                   22      1       0.0070400
                   23      1       0.0073600
                   24      1       0.0076800
                   25      1       0.0080000
     Insulated Backing

   2 OPEN
     Passive Vent to Atmosphere

   3 MIRROR
     Symmetry Plane

   4 INTERPOLATED

   5 PERIODIC

   6 HVAC

   7 MASSLESS TRACER

   8 DROPLET

   9 VEGETATION

  10 EVACUATION_OUTFLOW
     Normal Velocity (m/s)         0.000

  11 MASSLESS TARGET


 Device Coordinates

     1 Coords:     0.00     0.00     0.00, Make: null, ID: Wall thickness, Quantity: WALL THICKNESS
     2 Coords:     0.00     0.00     0.00, Make: null, ID: Wall_temperature, Quantity: WALL TEMPERATURE
     3 Coords:     0.00     0.00     0.00, Make: null, ID: Back_wall_temperature, Quantity: BACK WALL TEMPERATURE


 Radiation Model Information

   Number of control angles  104
   Time step increment         3
   Angle increment             5
   Theta band N_phi   Solid angle
     1:        4  0.12
     2:       12  0.11
     3:       16  0.13
     4:       20  0.12
     5:       20  0.12
     6:       16  0.13
     7:       12  0.11
     8:        4  0.12
   Using constant absorption coefficient of   0.000 1/m
 
 

 Run Time Diagnostics

       Time Step       1   June 29, 2018  15:47:29
       Pressure Iterations:      1
       Maximum Velocity Error:  0.85E-10 on Mesh   1 at (   2   2   0)
       ---------------------------------------------------------------
       CPU/step:     0.129E-01 s, Total CPU:        0.01 s
       Time step:    0.100E+00 s, Total time:       0.10 s
       Max CFL number:  0.00E+00 at (  0,  0,  0)
       Max divergence:  0.14E-16 at (  1,  1,  3)
       Min divergence: -0.28E-16 at (  1,  2,  1)
       Max VN  number:  0.00E+00 at (  0,  0,  0)
 
       Time Step       2   June 29, 2018  15:47:29
       Pressure Iterations:      1
       Maximum Velocity Error:  0.60E-12 on Mesh   1 at (   2   2   0)
       ---------------------------------------------------------------
       CPU/step:     0.956E-04 s, Total CPU:        0.01 s
       Time step:    0.100E+00 s, Total time:       0.20 s
       Max CFL number:  0.00E+00 at (  0,  0,  0)
       Max divergence:  0.14E-16 at (  1,  1,  3)
       Min divergence: -0.28E-16 at (  1,  2,  1)
       Max VN  number:  0.00E+00 at (  0,  0,  0)
 
       Time Step       3   June 29, 2018  15:47:29
       Pressure Iterations:      1
       Maximum Velocity Error:  0.30E-11 on Mesh   1 at (   2   2   0)
       ---------------------------------------------------------------
       CPU/step:     0.637E-04 s, Total CPU:        0.01 s
       Time step:    0.100E+00 s, Total time:       0.30 s
       Max CFL number:  0.00E+00 at (  0,  0,  0)
       Max divergence:  0.14E-16 at (  1,  1,  3)
       Min divergence: -0.28E-16 at (  1,  2,  1)
       Max VN  number:  0.00E+00 at (  0,  0,  0)
 
       Time Step       4   June 29, 2018  15:47:29
       Pressure Iterations:      1
       Maximum Velocity Error:  0.37E-11 on Mesh   1 at (   2   2   0)
       ---------------------------------------------------------------
       CPU/step:     0.357E-02 s, Total CPU:        0.02 s
       Time step:    0.100E+00 s, Total time:       0.40 s
       Max CFL number:  0.00E+00 at (  0,  0,  0)
       Max divergence:  0.14E-16 at (  1,  1,  3)
       Min divergence: -0.28E-16 at (  1,  2,  1)
       Max VN  number:  0.00E+00 at (  0,  0,  0)
 
       Time Step       5   June 29, 2018  15:47:29
       Pressure Iterations:      1
       Maximum Velocity Error:  0.45E-11 on Mesh   1 at (   2   2   0)
       ---------------------------------------------------------------
       CPU/step:     0.705E-04 s, Total CPU:        0.02 s
       Time step:    0.100E+00 s, Total time:       0.50 s
       Max CFL number:  0.00E+00 at (  0,  0,  0)
       Max divergence:  0.14E-16 at (  1,  1,  3)
       Min divergence: -0.28E-16 at (  1,  2,  1)
       Max VN  number:  0.00E+00 at (  0,  0,  0)
 
       Time Step       6   June 29, 2018  15:47:29
       Pressure Iterations:      1
       Maximum Velocity Error:  0.56E-11 on Mesh   1 at (   2   2   0)
       ---------------------------------------------------------------
       CPU/step:     0.557E-04 s, Total CPU:        0.02 s
       Time step:    0.100E+00 s, Total time:       0.60 s
       Max CFL number:  0.00E+00 at (  0,  0,  0)
       Max divergence:  0.14E-16 at (  1,  1,  3)
       Min divergence: -0.28E-16 at (  1,  2,  1)
       Max VN  number:  0.00E+00 at (  0,  0,  0)
 
       Time Step       7   June 29, 2018  15:47:29
       Pressure Iterations:      1
       Maximum Velocity Error:  0.68E-11 on Mesh   1 at (   2   2   0)
       ---------------------------------------------------------------
       CPU/step:     0.403E-03 s, Total CPU:        0.02 s
       Time step:    0.100E+00 s, Total time:       0.70 s
       Max CFL number:  0.00E+00 at (  0,  0,  0)
       Max divergence:  0.14E-16 at (  1,  1,  3)
       Min divergence: -0.28E-16 at (  1,  2,  1)
       Max VN  number:  0.00E+00 at (  0,  0,  0)
 
       Time Step       8   June 29, 2018  15:47:29
       Pressure Iterations:      1
       Maximum Velocity Error:  0.83E-11 on Mesh   1 at (   2   2   0)
       ---------------------------------------------------------------
       CPU/step:     0.566E-04 s, Total CPU:        0.02 s
       Time step:    0.100E+00 s, Total time:       0.80 s
       Max CFL number:  0.00E+00 at (  0,  0,  0)
       Max divergence:  0.14E-16 at (  1,  1,  3)
       Min divergence: -0.28E-16 at (  1,  2,  1)
       Max VN  number:  0.00E+00 at (  0,  0,  0)
 
       Time Step       9   June 29, 2018  15:47:29
       Pressure Iterations:      1
       Maximum Velocity Error:  0.10E-10 on Mesh   1 at (   2   2   0)
       ---------------------------------------------------------------
       CPU/step:     0.535E-04 s, Total CPU:        0.02 s
       Time step:    0.100E+00 s, Total time:       0.90 s
       Max CFL number:  0.00E+00 at (  0,  0,  0)
       Max divergence:  0.14E-16 at (  1,  1,  3)
       Min divergence: -0.28E-16 at (  1,  2,  1)
       Max VN  number:  0.00E+00 at (  0,  0,  0)
 
       Time Step      10   June 29, 2018  15:47:29
       Pressure Iterations:      1
       Maximum Velocity Error:  0.12E-10 on Mesh   1 at (   2   2   0)
       ---------------------------------------------------------------
       CPU/step:     0.894E-03 s, Total CPU:        0.02 s
       Time step:    0.100E+00 s, Total time:       1.00 s
       Max CFL number:  0.00E+00 at (  0,  0,  0)
       Max divergence:  0.14E-16 at (  1,  1,  3)
       Min divergence: -0.28E-16 at (  1,  2,  1)
       Max VN  number:  0.00E+00 at (  0,  0,  0)
 
       Time Step      20   June 29, 2018  15:47:29
       Pressure Iterations:      1
       Maximum Velocity Error:  0.64E-10 on Mesh   1 at (   2   2   0)
       ---------------------------------------------------------------
       CPU/step:     0.167E-03 s, Total CPU:        0.02 s
       Time step:    0.100E+00 s, Total time:       2.00 s
       Max CFL number:  0.00E+00 at (  0,  0,  0)
       Max divergence:  0.14E-16 at (  1,  1,  3)
       Min divergence: -0.28E-16 at (  1,  2,  1)
       Max VN  number:  0.00E+00 at (  0,  0,  0)
 
       Time Step      30   June 29, 2018  15:47:29
       Pressure Iterations:      1
       Maximum Velocity Error:  0.24E-09 on Mesh   1 at (   2   2   0)
       ---------------------------------------------------------------
       CPU/step:     0.341E-03 s, Total CPU:        0.02 s
       Time step:    0.100E+00 s, Total time:       3.00 s
       Max CFL number:  0.00E+00 at (  0,  0,  0)
       Max divergence:  0.14E-16 at (  1,  1,  3)
       Min divergence: -0.28E-16 at (  1,  2,  1)
       Max VN  number:  0.00E+00 at (  0,  0,  0)
 
       Time Step      40   June 29, 2018  15:47:29
       Pressure Iterations:      1
       Maximum Velocity Error:  0.72E-09 on Mesh   1 at (   2   2   0)
       ---------------------------------------------------------------
       CPU/step:     0.592E-03 s, Total CPU:        0.03 s
       Time step:    0.100E+00 s, Total time:       4.00 s
       Max CFL number:  0.00E+00 at (  0,  0,  0)
       Max divergence:  0.14E-16 at (  1,  1,  3)
       Min divergence: -0.28E-16 at (  1,  2,  1)
       Max VN  number:  0.00E+00 at (  0,  0,  0)
 
       Time Step      50   June 29, 2018  15:47:29
       Pressure Iterations:      1
       Maximum Velocity Error:  0.19E-08 on Mesh   1 at (   2   2   0)
       ---------------------------------------------------------------
       CPU/step:     0.891E-03 s, Total CPU:        0.04 s
       Time step:    0.100E+00 s, Total time:       5.00 s
       Max CFL number:  0.00E+00 at (  0,  0,  0)
       Max divergence:  0.14E-16 at (  1,  1,  3)
       Min divergence: -0.28E-16 at (  1,  2,  1)
       Max VN  number:  0.00E+00 at (  0,  0,  0)
 
       Time Step      60   June 29, 2018  15:47:29
       Pressure Iterations:      1
       Maximum Velocity Error:  0.43E-08 on Mesh   1 at (   2   2   0)
       ---------------------------------------------------------------
       CPU/step:     0.178E-03 s, Total CPU:        0.04 s
       Time step:    0.100E+00 s, Total time:       6.00 s
       Max CFL number:  0.00E+00 at (  0,  0,  0)
       Max divergence:  0.14E-16 at (  1,  1,  3)
       Min divergence: -0.28E-16 at (  1,  2,  1)
       Max VN  number:  0.00E+00 at (  0,  0,  0)
 
       Time Step      70   June 29, 2018  15:47:29
       Pressure Iterations:      1
       Maximum Velocity Error:  0.92E-08 on Mesh   1 at (   2   2   0)
       ---------------------------------------------------------------
       CPU/step:     0.219E-03 s, Total CPU:        0.04 s
       Time step:    0.100E+00 s, Total time:       7.00 s
       Max CFL number:  0.00E+00 at (  0,  0,  0)
       Max divergence:  0.14E-16 at (  1,  1,  3)
       Min divergence: -0.28E-16 at (  1,  2,  1)
       Max VN  number:  0.00E+00 at (  0,  0,  0)
 
       Time Step      80   June 29, 2018  15:47:29
       Pressure Iterations:      1
       Maximum Velocity Error:  0.18E-07 on Mesh   1 at (   2   2   0)
       ---------------------------------------------------------------
       CPU/step:     0.223E-03 s, Total CPU:        0.04 s
       Time step:    0.100E+00 s, Total time:       8.00 s
       Max CFL number:  0.00E+00 at (  0,  0,  0)
       Max divergence:  0.14E-16 at (  1,  1,  3)
       Min divergence: -0.28E-16 at (  1,  2,  1)
       Max VN  number:  0.00E+00 at (  0,  0,  0)
 
       Time Step      90   June 29, 2018  15:47:29
       Pressure Iterations:      1
       Maximum Velocity Error:  0.36E-07 on Mesh   1 at (   2   2   0)
       ---------------------------------------------------------------
       CPU/step:     0.203E-03 s, Total CPU:        0.05 s
       Time step:    0.100E+00 s, Total time:       9.00 s
       Max CFL number:  0.00E+00 at (  0,  0,  0)
       Max divergence:  0.14E-16 at (  1,  1,  3)
       Min divergence: -0.28E-16 at (  1,  2,  1)
       Max VN  number:  0.00E+00 at (  0,  0,  0)
 
       Time Step     100   June 29, 2018  15:47:29
       Pressure Iterations:      1
       Maximum Velocity Error:  0.69E-07 on Mesh   1 at (   2   2   0)
       ---------------------------------------------------------------
       CPU/step:     0.245E-03 s, Total CPU:        0.05 s
       Time step:    0.100E+00 s, Total time:      10.00 s
       Max CFL number:  0.00E+00 at (  0,  0,  0)
       Max divergence:  0.14E-16 at (  1,  1,  3)
       Min divergence: -0.28E-16 at (  1,  2,  1)
       Max VN  number:  0.00E+00 at (  0,  0,  0)
 
       Time Step     200   June 29, 2018  15:47:29
       Pressure Iterations:      1
       Maximum Velocity Error:  0.84E-05 on Mesh   1 at (   2   2   0)
       ---------------------------------------------------------------
       CPU/step:     0.186E-03 s, Total CPU:        0.07 s
       Time step:    0.100E+00 s, Total time:      20.00 s
       Max CFL number:  0.00E+00 at (  0,  0,  0)
       Max divergence:  0.14E-16 at (  1,  1,  3)
       Min divergence: -0.28E-16 at (  1,  2,  1)
       Max VN  number:  0.00E+00 at (  0,  0,  0)
 
       Time Step     300   June 29, 2018  15:47:29
       Pressure Iterations:      1
       Maximum Velocity Error:  0.68E-04 on Mesh   1 at (   2   2   0)
       ---------------------------------------------------------------
       CPU/step:     0.172E-03 s, Total CPU:        0.08 s
       Time step:    0.100E+00 s, Total time:      30.00 s
       Max CFL number:  0.00E+00 at (  0,  0,  0)
       Max divergence:  0.14E-16 at (  1,  1,  3)
       Min divergence: -0.28E-16 at (  1,  2,  1)
       Max VN  number:  0.00E+00 at (  0,  0,  0)
 
       Time Step     400   June 29, 2018  15:47:29
       Pressure Iterations:      1
       Maximum Velocity Error:  0.86E-04 on Mesh   1 at (   2   2   0)
       ---------------------------------------------------------------
       CPU/step:     0.206E-03 s, Total CPU:        0.11 s
       Time step:    0.100E+00 s, Total time:      40.00 s
       Max CFL number:  0.00E+00 at (  0,  0,  0)
       Max divergence:  0.14E-16 at (  1,  1,  3)
       Min divergence: -0.28E-16 at (  1,  2,  1)
       Max VN  number:  0.00E+00 at (  0,  0,  0)
 
       Time Step     500   June 29, 2018  15:47:29
       Pressure Iterations:      1
       Maximum Velocity Error:  0.13E-04 on Mesh   1 at (   2   2   0)
       ---------------------------------------------------------------
       CPU/step:     0.188E-03 s, Total CPU:        0.12 s
       Time step:    0.100E+00 s, Total time:      50.00 s
       Max CFL number:  0.00E+00 at (  0,  0,  0)
       Max divergence:  0.14E-16 at (  1,  1,  3)
       Min divergence: -0.28E-16 at (  1,  2,  1)
       Max VN  number:  0.00E+00 at (  0,  0,  0)
 
       Time Step     600   June 29, 2018  15:47:29
       Pressure Iterations:      1
       Maximum Velocity Error:  0.28E-04 on Mesh   1 at (   2   2   0)
       ---------------------------------------------------------------
       CPU/step:     0.193E-03 s, Total CPU:        0.14 s
       Time step:    0.100E+00 s, Total time:      60.00 s
       Max CFL number:  0.00E+00 at (  0,  0,  0)
       Max divergence:  0.14E-16 at (  1,  1,  3)
       Min divergence: -0.28E-16 at (  1,  2,  1)
       Max VN  number:  0.00E+00 at (  0,  0,  0)
 
       Time Step     700   June 29, 2018  15:47:29
       Pressure Iterations:      1
       Maximum Velocity Error:  0.97E-05 on Mesh   1 at (   2   2   0)
       ---------------------------------------------------------------
       CPU/step:     0.169E-03 s, Total CPU:        0.16 s
       Time step:    0.100E+00 s, Total time:      70.00 s
       Max CFL number:  0.00E+00 at (  0,  0,  0)
       Max divergence:  0.14E-16 at (  1,  1,  3)
       Min divergence: -0.28E-16 at (  1,  2,  1)
       Max VN  number:  0.00E+00 at (  0,  0,  0)
 
       Time Step     800   June 29, 2018  15:47:29
       Pressure Iterations:      1
       Maximum Velocity Error:  0.11E-05 on Mesh   1 at (   2   2   0)
       ---------------------------------------------------------------
       CPU/step:     0.171E-03 s, Total CPU:        0.18 s
       Time step:    0.100E+00 s, Total time:      80.00 s
       Max CFL number:  0.00E+00 at (  0,  0,  0)
       Max divergence:  0.14E-16 at (  1,  1,  3)
       Min divergence: -0.28E-16 at (  1,  2,  1)
       Max VN  number:  0.00E+00 at (  0,  0,  0)
 
       Time Step     900   June 29, 2018  15:47:29
       Pressure Iterations:      1
       Maximum Velocity Error:  0.84E-05 on Mesh   1 at (   2   2   0)
       ---------------------------------------------------------------
       CPU/step:     0.171E-03 s, Total CPU:        0.19 s
       Time step:    0.100E+00 s, Total time:      90.00 s
       Max CFL number:  0.00E+00 at (  0,  0,  0)
       Max divergence:  0.14E-16 at (  1,  1,  3)
       Min divergence: -0.28E-16 at (  1,  2,  1)
       Max VN  number:  0.00E+00 at (  0,  0,  0)
 
       Time Step    1000   June 29, 2018  15:47:29
       Pressure Iterations:      1
       Maximum Velocity Error:  0.24E-05 on Mesh   1 at (   2   2   0)
       ---------------------------------------------------------------
       CPU/step:     0.172E-03 s, Total CPU:        0.21 s
       Time step:    0.100E+00 s, Total time:     100.00 s
       Max CFL number:  0.00E+00 at (  0,  0,  0)
       Max divergence:  0.14E-16 at (  1,  1,  3)
       Min divergence: -0.28E-16 at (  1,  2,  1)
       Max VN  number:  0.00E+00 at (  0,  0,  0)
 
       Time Step    1100   June 29, 2018  15:47:29
       Pressure Iterations:      1
       Maximum Velocity Error:  0.62E-05 on Mesh   1 at (   2   2   0)
       ---------------------------------------------------------------
       CPU/step:     0.170E-03 s, Total CPU:        0.23 s
       Time step:    0.100E+00 s, Total time:     110.00 s
       Max CFL number:  0.00E+00 at (  0,  0,  0)
       Max divergence:  0.14E-16 at (  1,  1,  3)
       Min divergence: -0.28E-16 at (  1,  2,  1)
       Max VN  number:  0.00E+00 at (  0,  0,  0)
 
       Time Step    1200   June 29, 2018  15:47:29
       Pressure Iterations:      1
       Maximum Velocity Error:  0.12E-05 on Mesh   1 at (   2   2   0)
       ---------------------------------------------------------------
       CPU/step:     0.164E-03 s, Total CPU:        0.24 s
       Time step:    0.100E+00 s, Total time:     120.00 s
       Max CFL number:  0.00E+00 at (  0,  0,  0)
       Max divergence:  0.14E-16 at (  1,  1,  3)
       Min divergence: -0.28E-16 at (  1,  2,  1)
       Max VN  number:  0.00E+00 at (  0,  0,  0)
 
       Time Step    1300   June 29, 2018  15:47:29
       Pressure Iterations:      1
       Maximum Velocity Error:  0.20E-05 on Mesh   1 at (   2   2   0)
       ---------------------------------------------------------------
       CPU/step:     0.166E-03 s, Total CPU:        0.26 s
       Time step:    0.100E+00 s, Total time:     130.00 s
       Max CFL number:  0.00E+00 at (  0,  0,  0)
       Max divergence:  0.14E-16 at (  1,  1,  3)
       Min divergence: -0.28E-16 at (  1,  2,  1)
       Max VN  number:  0.00E+00 at (  0,  0,  0)
 
       Time Step    1400   June 29, 2018  15:47:29
       Pressure Iterations:      1
       Maximum Velocity Error:  0.90E-07 on Mesh   1 at (   2   2   0)
       ---------------------------------------------------------------
       CPU/step:     0.162E-03 s, Total CPU:        0.28 s
       Time step:    0.100E+00 s, Total time:     140.00 s
       Max CFL number:  0.00E+00 at (  0,  0,  0)
       Max divergence:  0.14E-16 at (  1,  1,  3)
       Min divergence: -0.28E-16 at (  1,  2,  1)
       Max VN  number:  0.00E+00 at (  0,  0,  0)
 
       Time Step    1500   June 29, 2018  15:47:29
       Pressure Iterations:      1
       Maximum Velocity Error:  0.19E-05 on Mesh   1 at (   2   2   0)
       ---------------------------------------------------------------
       CPU/step:     0.161E-03 s, Total CPU:        0.29 s
       Time step:    0.100E+00 s, Total time:     150.00 s
       Max CFL number:  0.00E+00 at (  0,  0,  0)
       Max divergence:  0.14E-16 at (  1,  1,  3)
       Min divergence: -0.28E-16 at (  1,  2,  1)
       Max VN  number:  0.00E+00 at (  0,  0,  0)
 
       Time Step    1600   June 29, 2018  15:47:29
       Pressure Iterations:      1
       Maximum Velocity Error:  0.25E-05 on Mesh   1 at (   2   2   0)
       ---------------------------------------------------------------
       CPU/step:     0.179E-03 s, Total CPU:        0.31 s
       Time step:    0.100E+00 s, Total time:     160.00 s
       Max CFL number:  0.00E+00 at (  0,  0,  0)
       Max divergence:  0.14E-16 at (  1,  1,  3)
       Min divergence: -0.28E-16 at (  1,  2,  1)
       Max VN  number:  0.00E+00 at (  0,  0,  0)
 
       Time Step    1700   June 29, 2018  15:47:29
       Pressure Iterations:      1
       Maximum Velocity Error:  0.44E-05 on Mesh   1 at (   2   2   0)
       ---------------------------------------------------------------
       CPU/step:     0.186E-03 s, Total CPU:        0.33 s
       Time step:    0.100E+00 s, Total time:     170.00 s
       Max CFL number:  0.00E+00 at (  0,  0,  0)
       Max divergence:  0.14E-16 at (  1,  1,  3)
       Min divergence: -0.28E-16 at (  1,  2,  1)
       Max VN  number:  0.00E+00 at (  0,  0,  0)
 
       Time Step    1800   June 29, 2018  15:47:29
       Pressure Iterations:      1
       Maximum Velocity Error:  0.59E-05 on Mesh   1 at (   2   2   0)
       ---------------------------------------------------------------
       CPU/step:     0.183E-03 s, Total CPU:        0.35 s
       Time step:    0.100E+00 s, Total time:     180.00 s
       Max CFL number:  0.00E+00 at (  0,  0,  0)
       Max divergence:  0.14E-16 at (  1,  1,  3)
       Min divergence: -0.28E-16 at (  1,  2,  1)
       Max VN  number:  0.00E+00 at (  0,  0,  0)
 
       Time Step    1900   June 29, 2018  15:47:29
       Pressure Iterations:      1
       Maximum Velocity Error:  0.71E-05 on Mesh   1 at (   2   2   0)
       ---------------------------------------------------------------
       CPU/step:     0.186E-03 s, Total CPU:        0.37 s
       Time step:    0.100E+00 s, Total time:     190.00 s
       Max CFL number:  0.00E+00 at (  0,  0,  0)
       Max divergence:  0.14E-16 at (  1,  1,  3)
       Min divergence: -0.28E-16 at (  1,  2,  1)
       Max VN  number:  0.00E+00 at (  0,  0,  0)
 
       Time Step    2000   June 29, 2018  15:47:29
       Pressure Iterations:      1
       Maximum Velocity Error:  0.90E-05 on Mesh   1 at (   2   2   0)
       ---------------------------------------------------------------
       CPU/step:     0.182E-03 s, Total CPU:        0.39 s
       Time step:    0.100E+00 s, Total time:     200.00 s
       Max CFL number:  0.00E+00 at (  0,  0,  0)
       Max divergence:  0.14E-16 at (  1,  1,  3)
       Min divergence: -0.28E-16 at (  1,  2,  1)
       Max VN  number:  0.00E+00 at (  0,  0,  0)
 
       Time Step    2100   June 29, 2018  15:47:29
       Pressure Iterations:      1
       Maximum Velocity Error:  0.11E-04 on Mesh   1 at (   2   2   0)
       ---------------------------------------------------------------
       CPU/step:     0.180E-03 s, Total CPU:        0.40 s
       Time step:    0.100E+00 s, Total time:     210.00 s
       Max CFL number:  0.00E+00 at (  0,  0,  0)
       Max divergence:  0.14E-16 at (  1,  1,  3)
       Min divergence: -0.28E-16 at (  1,  2,  1)
       Max VN  number:  0.00E+00 at (  0,  0,  0)
 
       Time Step    2200   June 29, 2018  15:47:29
       Pressure Iterations:      1
       Maximum Velocity Error:  0.13E-04 on Mesh   1 at (   2   2   0)
       ---------------------------------------------------------------
       CPU/step:     0.187E-03 s, Total CPU:        0.42 s
       Time step:    0.100E+00 s, Total time:     220.00 s
       Max CFL number:  0.00E+00 at (  0,  0,  0)
       Max divergence:  0.14E-16 at (  1,  1,  3)
       Min divergence: -0.28E-16 at (  1,  2,  1)
       Max VN  number:  0.00E+00 at (  0,  0,  0)
 
       Time Step    2300   June 29, 2018  15:47:29
       Pressure Iterations:      1
       Maximum Velocity Error:  0.15E-04 on Mesh   1 at (   2   2   0)
       ---------------------------------------------------------------
       CPU/step:     0.183E-03 s, Total CPU:        0.44 s
       Time step:    0.100E+00 s, Total time:     230.00 s
       Max CFL number:  0.00E+00 at (  0,  0,  0)
       Max divergence:  0.14E-16 at (  1,  1,  3)
       Min divergence: -0.28E-16 at (  1,  2,  1)
       Max VN  number:  0.00E+00 at (  0,  0,  0)
 
       Time Step    2400   June 29, 2018  15:47:29
       Pressure Iterations:      1
       Maximum Velocity Error:  0.17E-04 on Mesh   1 at (   2   2   0)
       ---------------------------------------------------------------
       CPU/step:     0.184E-03 s, Total CPU:        0.46 s
       Time step:    0.100E+00 s, Total time:     240.00 s
       Max CFL number:  0.00E+00 at (  0,  0,  0)
       Max divergence:  0.14E-16 at (  1,  1,  3)
       Min divergence: -0.28E-16 at (  1,  2,  1)
       Max VN  number:  0.00E+00 at (  0,  0,  0)
 
       Time Step    2500   June 29, 2018  15:47:29
       Pressure Iterations:      1
       Maximum Velocity Error:  0.19E-04 on Mesh   1 at (   2   2   0)
       ---------------------------------------------------------------
       CPU/step:     0.180E-03 s, Total CPU:        0.48 s
       Time step:    0.100E+00 s, Total time:     250.00 s
       Max CFL number:  0.00E+00 at (  0,  0,  0)
       Max divergence:  0.14E-16 at (  1,  1,  3)
       Min divergence: -0.28E-16 at (  1,  2,  1)
       Max VN  number:  0.00E+00 at (  0,  0,  0)
 
       Time Step    2600   June 29, 2018  15:47:29
       Pressure Iterations:      1
       Maximum Velocity Error:  0.20E-04 on Mesh   1 at (   2   2   0)
       ---------------------------------------------------------------
       CPU/step:     0.168E-03 s, Total CPU:        0.49 s
       Time step:    0.100E+00 s, Total time:     260.00 s
       Max CFL number:  0.00E+00 at (  0,  0,  0)
       Max divergence:  0.14E-16 at (  1,  1,  3)
       Min divergence: -0.28E-16 at (  1,  2,  1)
       Max VN  number:  0.00E+00 at (  0,  0,  0)
 
       Time Step    2700   June 29, 2018  15:47:29
       Pressure Iterations:      1
       Maximum Velocity Error:  0.21E-04 on Mesh   1 at (   2   2   0)
       ---------------------------------------------------------------
       CPU/step:     0.176E-03 s, Total CPU:        0.51 s
       Time step:    0.100E+00 s, Total time:     270.00 s
       Max CFL number:  0.00E+00 at (  0,  0,  0)
       Max divergence:  0.14E-16 at (  1,  1,  3)
       Min divergence: -0.28E-16 at (  1,  2,  1)
       Max VN  number:  0.00E+00 at (  0,  0,  0)
 
       Time Step    2800   June 29, 2018  15:47:29
       Pressure Iterations:      1
       Maximum Velocity Error:  0.20E-04 on Mesh   1 at (   2   2   0)
       ---------------------------------------------------------------
       CPU/step:     0.188E-03 s, Total CPU:        0.53 s
       Time step:    0.100E+00 s, Total time:     280.00 s
       Max CFL number:  0.00E+00 at (  0,  0,  0)
       Max divergence:  0.14E-16 at (  1,  1,  3)
       Min divergence: -0.28E-16 at (  1,  2,  1)
       Max VN  number:  0.00E+00 at (  0,  0,  0)
 
       Time Step    2900   June 29, 2018  15:47:29
       Pressure Iterations:      1
       Maximum Velocity Error:  0.17E-04 on Mesh   1 at (   2   2   0)
       ---------------------------------------------------------------
       CPU/step:     0.185E-03 s, Total CPU:        0.55 s
       Time step:    0.100E+00 s, Total time:     290.00 s
       Max CFL number:  0.00E+00 at (  0,  0,  0)
       Max divergence:  0.14E-16 at (  1,  1,  3)
       Min divergence: -0.28E-16 at (  1,  2,  1)
       Max VN  number:  0.00E+00 at (  0,  0,  0)
 
       Time Step    3000   June 29, 2018  15:47:29
       Pressure Iterations:      1
       Maximum Velocity Error:  0.13E-04 on Mesh   1 at (   2   2   0)
       ---------------------------------------------------------------
       CPU/step:     0.179E-03 s, Total CPU:        0.57 s
       Time step:    0.100E+00 s, Total time:     300.00 s
       Max CFL number:  0.00E+00 at (  0,  0,  0)
       Max divergence:  0.14E-16 at (  1,  1,  3)
       Min divergence: -0.28E-16 at (  1,  2,  1)
       Max VN  number:  0.00E+00 at (  0,  0,  0)
 
       Time Step    3100   June 29, 2018  15:47:29
       Pressure Iterations:      1
       Maximum Velocity Error:  0.78E-05 on Mesh   1 at (   2   2   0)
       ---------------------------------------------------------------
       CPU/step:     0.171E-03 s, Total CPU:        0.58 s
       Time step:    0.100E+00 s, Total time:     310.00 s
       Max CFL number:  0.00E+00 at (  0,  0,  0)
       Max divergence:  0.14E-16 at (  1,  1,  3)
       Min divergence: -0.28E-16 at (  1,  2,  1)
       Max VN  number:  0.00E+00 at (  0,  0,  0)
 
       Time Step    3200   June 29, 2018  15:47:29
       Pressure Iterations:      1
       Maximum Velocity Error:  0.18E-05 on Mesh   1 at (   2   2   0)
       ---------------------------------------------------------------
       CPU/step:     0.175E-03 s, Total CPU:        0.60 s
       Time step:    0.100E+00 s, Total time:     320.00 s
       Max CFL number:  0.00E+00 at (  0,  0,  0)
       Max divergence:  0.14E-16 at (  1,  1,  3)
       Min divergence: -0.28E-16 at (  1,  2,  1)
       Max VN  number:  0.00E+00 at (  0,  0,  0)
 
       Time Step    3300   June 29, 2018  15:47:29
       Pressure Iterations:      1
       Maximum Velocity Error:  0.42E-05 on Mesh   1 at (   2   2   0)
       ---------------------------------------------------------------
       CPU/step:     0.181E-03 s, Total CPU:        0.62 s
       Time step:    0.100E+00 s, Total time:     330.00 s
       Max CFL number:  0.00E+00 at (  0,  0,  0)
       Max divergence:  0.14E-16 at (  1,  1,  3)
       Min divergence: -0.28E-16 at (  1,  2,  1)
       Max VN  number:  0.00E+00 at (  0,  0,  0)
 
       Time Step    3400   June 29, 2018  15:47:29
       Pressure Iterations:      1
       Maximum Velocity Error:  0.96E-05 on Mesh   1 at (   2   2   0)
       ---------------------------------------------------------------
       CPU/step:     0.186E-03 s, Total CPU:        0.64 s
       Time step:    0.100E+00 s, Total time:     340.00 s
       Max CFL number:  0.00E+00 at (  0,  0,  0)
       Max divergence:  0.14E-16 at (  1,  1,  3)
       Min divergence: -0.28E-16 at (  1,  2,  1)
       Max VN  number:  0.00E+00 at (  0,  0,  0)
 
       Time Step    3500   June 29, 2018  15:47:29
       Pressure Iterations:      1
       Maximum Velocity Error:  0.14E-04 on Mesh   1 at (   2   2   0)
       ---------------------------------------------------------------
       CPU/step:     0.176E-03 s, Total CPU:        0.66 s
       Time step:    0.100E+00 s, Total time:     350.00 s
       Max CFL number:  0.00E+00 at (  0,  0,  0)
       Max divergence:  0.14E-16 at (  1,  1,  3)
       Min divergence: -0.28E-16 at (  1,  2,  1)
       Max VN  number:  0.00E+00 at (  0,  0,  0)
 
       Time Step    3600   June 29, 2018  15:47:29
       Pressure Iterations:      1
       Maximum Velocity Error:  0.18E-04 on Mesh   1 at (   2   2   0)
       ---------------------------------------------------------------
       CPU/step:     0.169E-03 s, Total CPU:        0.67 s
       Time step:    0.100E+00 s, Total time:     360.00 s
       Max CFL number:  0.00E+00 at (  0,  0,  0)
       Max divergence:  0.14E-16 at (  1,  1,  3)
       Min divergence: -0.28E-16 at (  1,  2,  1)
       Max VN  number:  0.00E+00 at (  0,  0,  0)
 
       Time Step    3700   June 29, 2018  15:47:29
       Pressure Iterations:      1
       Maximum Velocity Error:  0.21E-04 on Mesh   1 at (   2   2   0)
       ---------------------------------------------------------------
       CPU/step:     0.172E-03 s, Total CPU:        0.69 s
       Time step:    0.100E+00 s, Total time:     370.00 s
       Max CFL number:  0.00E+00 at (  0,  0,  0)
       Max divergence:  0.14E-16 at (  1,  1,  3)
       Min divergence: -0.28E-16 at (  1,  2,  1)
       Max VN  number:  0.00E+00 at (  0,  0,  0)
 
       Time Step    3800   June 29, 2018  15:47:29
       Pressure Iterations:      1
       Maximum Velocity Error:  0.25E-04 on Mesh   1 at (   2   2   0)
       ---------------------------------------------------------------
       CPU/step:     0.170E-03 s, Total CPU:        0.71 s
       Time step:    0.100E+00 s, Total time:     380.00 s
       Max CFL number:  0.00E+00 at (  0,  0,  0)
       Max divergence:  0.14E-16 at (  1,  1,  3)
       Min divergence: -0.28E-16 at (  1,  2,  1)
       Max VN  number:  0.00E+00 at (  0,  0,  0)
 
       Time Step    3900   June 29, 2018  15:47:29
       Pressure Iterations:      1
       Maximum Velocity Error:  0.30E-04 on Mesh   1 at (   2   2   0)
       ---------------------------------------------------------------
       CPU/step:     0.178E-03 s, Total CPU:        0.72 s
       Time step:    0.100E+00 s, Total time:     390.00 s
       Max CFL number:  0.00E+00 at (  0,  0,  0)
       Max divergence:  0.14E-16 at (  1,  1,  3)
       Min divergence: -0.28E-16 at (  1,  2,  1)
       Max VN  number:  0.00E+00 at (  0,  0,  0)
 
       Time Step    4000   June 29, 2018  15:47:29
       Pressure Iterations:      1
       Maximum Velocity Error:  0.37E-04 on Mesh   1 at (   2   2   0)
       ---------------------------------------------------------------
       CPU/step:     0.163E-03 s, Total CPU:        0.74 s
       Time step:    0.100E+00 s, Total time:     400.00 s
       Max CFL number:  0.00E+00 at (  0,  0,  0)
       Max divergence:  0.14E-16 at (  1,  1,  3)
       Min divergence: -0.28E-16 at (  1,  2,  1)
       Max VN  number:  0.00E+00 at (  0,  0,  0)
 
       Time Step    4100   June 29, 2018  15:47:30
       Pressure Iterations:      1
       Maximum Velocity Error:  0.50E-04 on Mesh   1 at (   2   2   0)
       ---------------------------------------------------------------
       CPU/step:     0.163E-03 s, Total CPU:        0.76 s
       Time step:    0.100E+00 s, Total time:     410.00 s
       Max CFL number:  0.00E+00 at (  0,  0,  0)
       Max divergence:  0.14E-16 at (  1,  1,  3)
       Min divergence: -0.28E-16 at (  1,  2,  1)
       Max VN  number:  0.00E+00 at (  0,  0,  0)
 
       Time Step    4200   June 29, 2018  15:47:30
       Pressure Iterations:      1
       Maximum Velocity Error:  0.72E-04 on Mesh   1 at (   2   2   0)
       ---------------------------------------------------------------
       CPU/step:     0.177E-03 s, Total CPU:        0.77 s
       Time step:    0.100E+00 s, Total time:     420.00 s
       Max CFL number:  0.00E+00 at (  0,  0,  0)
       Max divergence:  0.14E-16 at (  1,  1,  3)
       Min divergence: -0.28E-16 at (  1,  2,  1)
       Max VN  number:  0.00E+00 at (  0,  0,  0)
 
       Time Step    4300   June 29, 2018  15:47:30
       Pressure Iterations:      1
       Maximum Velocity Error:  0.71E-04 on Mesh   1 at (   2   2   0)
       ---------------------------------------------------------------
       CPU/step:     0.163E-03 s, Total CPU:        0.79 s
       Time step:    0.100E+00 s, Total time:     430.00 s
       Max CFL number:  0.00E+00 at (  0,  0,  0)
       Max divergence:  0.14E-16 at (  1,  1,  3)
       Min divergence: -0.28E-16 at (  1,  2,  1)
       Max VN  number:  0.00E+00 at (  0,  0,  0)
 
       Time Step    4400   June 29, 2018  15:47:30
       Pressure Iterations:      1
       Maximum Velocity Error:  0.19E-04 on Mesh   1 at (   2   2   0)
       ---------------------------------------------------------------
       CPU/step:     0.175E-03 s, Total CPU:        0.81 s
       Time step:    0.100E+00 s, Total time:     440.00 s
       Max CFL number:  0.00E+00 at (  0,  0,  0)
       Max divergence:  0.14E-16 at (  1,  1,  3)
       Min divergence: -0.28E-16 at (  1,  2,  1)
       Max VN  number:  0.00E+00 at (  0,  0,  0)
 
       Time Step    4500   June 29, 2018  15:47:30
       Pressure Iterations:      1
       Maximum Velocity Error:  0.32E-05 on Mesh   1 at (   2   2   0)
       ---------------------------------------------------------------
       CPU/step:     0.184E-03 s, Total CPU:        0.83 s
       Time step:    0.100E+00 s, Total time:     450.00 s
       Max CFL number:  0.00E+00 at (  0,  0,  0)
       Max divergence:  0.14E-16 at (  1,  1,  3)
       Min divergence: -0.28E-16 at (  1,  2,  1)
       Max VN  number:  0.00E+00 at (  0,  0,  0)
 
       Time Step    4600   June 29, 2018  15:47:30
       Pressure Iterations:      1
       Maximum Velocity Error:  0.70E-06 on Mesh   1 at (   2   2   0)
       ---------------------------------------------------------------
       CPU/step:     0.179E-03 s, Total CPU:        0.84 s
       Time step:    0.100E+00 s, Total time:     460.00 s
       Max CFL number:  0.00E+00 at (  0,  0,  0)
       Max divergence:  0.14E-16 at (  1,  1,  3)
       Min divergence: -0.28E-16 at (  1,  2,  1)
       Max VN  number:  0.00E+00 at (  0,  0,  0)
 
       Time Step    4700   June 29, 2018  15:47:30
       Pressure Iterations:      1
       Maximum Velocity Error:  0.20E-06 on Mesh   1 at (   2   2   0)
       ---------------------------------------------------------------
       CPU/step:     0.178E-03 s, Total CPU:        0.86 s
       Time step:    0.100E+00 s, Total time:     470.00 s
       Max CFL number:  0.00E+00 at (  0,  0,  0)
       Max divergence:  0.14E-16 at (  1,  1,  3)
       Min divergence: -0.28E-16 at (  1,  2,  1)
       Max VN  number:  0.00E+00 at (  0,  0,  0)
 
       Time Step    4800   June 29, 2018  15:47:30
       Pressure Iterations:      1
       Maximum Velocity Error:  0.73E-07 on Mesh   1 at (   2   2   0)
       ---------------------------------------------------------------
       CPU/step:     0.191E-03 s, Total CPU:        0.88 s
       Time step:    0.100E+00 s, Total time:     480.00 s
       Max CFL number:  0.00E+00 at (  0,  0,  0)
       Max divergence:  0.14E-16 at (  1,  1,  3)
       Min divergence: -0.28E-16 at (  1,  2,  1)
       Max VN  number:  0.00E+00 at (  0,  0,  0)
 
       Time Step    4900   June 29, 2018  15:47:30
       Pressure Iterations:      1
       Maximum Velocity Error:  0.30E-07 on Mesh   1 at (   2   2   0)
       ---------------------------------------------------------------
       CPU/step:     0.233E-03 s, Total CPU:        0.90 s
       Time step:    0.100E+00 s, Total time:     490.00 s
       Max CFL number:  0.00E+00 at (  0,  0,  0)
       Max divergence:  0.14E-16 at (  1,  1,  3)
       Min divergence: -0.28E-16 at (  1,  2,  1)
       Max VN  number:  0.00E+00 at (  0,  0,  0)
 
       Time Step    5000   June 29, 2018  15:47:30
       Pressure Iterations:      1
       Maximum Velocity Error:  0.14E-07 on Mesh   1 at (   2   2   0)
       ---------------------------------------------------------------
       CPU/step:     0.210E-03 s, Total CPU:        0.93 s
       Time step:    0.100E+00 s, Total time:     500.00 s
       Max CFL number:  0.00E+00 at (  0,  0,  0)
       Max divergence:  0.14E-16 at (  1,  1,  3)
       Min divergence: -0.28E-16 at (  1,  2,  1)
       Max VN  number:  0.00E+00 at (  0,  0,  0)
 
       Time Step    5100   June 29, 2018  15:47:30
       Pressure Iterations:      1
       Maximum Velocity Error:  0.74E-08 on Mesh   1 at (   2   2   0)
       ---------------------------------------------------------------
       CPU/step:     0.195E-03 s, Total CPU:        0.95 s
       Time step:    0.100E+00 s, Total time:     510.00 s
       Max CFL number:  0.00E+00 at (  0,  0,  0)
       Max divergence:  0.14E-16 at (  1,  1,  3)
       Min divergence: -0.28E-16 at (  1,  2,  1)
       Max VN  number:  0.00E+00 at (  0,  0,  0)
 
       Time Step    5200   June 29, 2018  15:47:30
       Pressure Iterations:      1
       Maximum Velocity Error:  0.41E-08 on Mesh   1 at (   2   2   0)
       ---------------------------------------------------------------
       CPU/step:     0.204E-03 s, Total CPU:        0.97 s
       Time step:    0.100E+00 s, Total time:     520.00 s
       Max CFL number:  0.00E+00 at (  0,  0,  0)
       Max divergence:  0.14E-16 at (  1,  1,  3)
       Min divergence: -0.28E-16 at (  1,  2,  1)
       Max VN  number:  0.00E+00 at (  0,  0,  0)
 
       Time Step    5300   June 29, 2018  15:47:30
       Pressure Iterations:      1
       Maximum Velocity Error:  0.24E-08 on Mesh   1 at (   2   2   0)
       ---------------------------------------------------------------
       CPU/step:     0.167E-03 s, Total CPU:        0.98 s
       Time step:    0.100E+00 s, Total time:     530.00 s
       Max CFL number:  0.00E+00 at (  0,  0,  0)
       Max divergence:  0.14E-16 at (  1,  1,  3)
       Min divergence: -0.28E-16 at (  1,  2,  1)
       Max VN  number:  0.00E+00 at (  0,  0,  0)
 
       Time Step    5400   June 29, 2018  15:47:30
       Pressure Iterations:      1
       Maximum Velocity Error:  0.15E-08 on Mesh   1 at (   2   2   0)
       ---------------------------------------------------------------
       CPU/step:     0.163E-03 s, Total CPU:        1.00 s
       Time step:    0.100E+00 s, Total time:     540.00 s
       Max CFL number:  0.00E+00 at (  0,  0,  0)
       Max divergence:  0.14E-16 at (  1,  1,  3)
       Min divergence: -0.28E-16 at (  1,  2,  1)
       Max VN  number:  0.00E+00 at (  0,  0,  0)
 
       Time Step    5500   June 29, 2018  15:47:30
       Pressure Iterations:      1
       Maximum Velocity Error:  0.97E-09 on Mesh   1 at (   2   2   0)
       ---------------------------------------------------------------
       CPU/step:     0.181E-03 s, Total CPU:        1.02 s
       Time step:    0.100E+00 s, Total time:     550.00 s
       Max CFL number:  0.00E+00 at (  0,  0,  0)
       Max divergence:  0.14E-16 at (  1,  1,  3)
       Min divergence: -0.28E-16 at (  1,  2,  1)
       Max VN  number:  0.00E+00 at (  0,  0,  0)
 
       Time Step    5600   June 29, 2018  15:47:30
       Pressure Iterations:      1
       Maximum Velocity Error:  0.65E-09 on Mesh   1 at (   2   2   0)
       ---------------------------------------------------------------
       CPU/step:     0.162E-03 s, Total CPU:        1.03 s
       Time step:    0.100E+00 s, Total time:     560.00 s
       Max CFL number:  0.00E+00 at (  0,  0,  0)
       Max divergence:  0.14E-16 at (  1,  1,  3)
       Min divergence: -0.28E-16 at (  1,  2,  1)
       Max VN  number:  0.00E+00 at (  0,  0,  0)
 
       Time Step    5700   June 29, 2018  15:47:30
       Pressure Iterations:      1
       Maximum Velocity Error:  0.45E-09 on Mesh   1 at (   2   2   0)
       ---------------------------------------------------------------
       CPU/step:     0.170E-03 s, Total CPU:        1.05 s
       Time step:    0.100E+00 s, Total time:     570.00 s
       Max CFL number:  0.00E+00 at (  0,  0,  0)
       Max divergence:  0.14E-16 at (  1,  1,  3)
       Min divergence: -0.28E-16 at (  1,  2,  1)
       Max VN  number:  0.00E+00 at (  0,  0,  0)
 
       Time Step    5800   June 29, 2018  15:47:30
       Pressure Iterations:      1
       Maximum Velocity Error:  0.33E-09 on Mesh   1 at (   2   2   0)
       ---------------------------------------------------------------
       CPU/step:     0.188E-03 s, Total CPU:        1.07 s
       Time step:    0.100E+00 s, Total time:     580.00 s
       Max CFL number:  0.00E+00 at (  0,  0,  0)
       Max divergence:  0.14E-16 at (  1,  1,  3)
       Min divergence: -0.28E-16 at (  1,  2,  1)
       Max VN  number:  0.00E+00 at (  0,  0,  0)
 
       Time Step    5900   June 29, 2018  15:47:30
       Pressure Iterations:      1
       Maximum Velocity Error:  0.24E-09 on Mesh   1 at (   2   2   0)
       ---------------------------------------------------------------
       CPU/step:     0.188E-03 s, Total CPU:        1.09 s
       Time step:    0.100E+00 s, Total time:     590.00 s
       Max CFL number:  0.00E+00 at (  0,  0,  0)
       Max divergence:  0.14E-16 at (  1,  1,  3)
       Min divergence: -0.28E-16 at (  1,  2,  1)
       Max VN  number:  0.00E+00 at (  0,  0,  0)
 
       Time Step    6000   June 29, 2018  15:47:30
       Pressure Iterations:      1
       Maximum Velocity Error:  0.18E-09 on Mesh   1 at (   2   2   0)
       ---------------------------------------------------------------
       CPU/step:     0.189E-03 s, Total CPU:        1.11 s
       Time step:    0.100E+00 s, Total time:     600.00 s
       Max CFL number:  0.00E+00 at (  0,  0,  0)
       Max divergence:  0.14E-16 at (  1,  1,  3)
       Min divergence: -0.28E-16 at (  1,  2,  1)
       Max VN  number:  0.00E+00 at (  0,  0,  0)
 
       Time Step    6100   June 29, 2018  15:47:30
       Pressure Iterations:      1
       Maximum Velocity Error:  0.14E-09 on Mesh   1 at (   2   2   0)
       ---------------------------------------------------------------
       CPU/step:     0.190E-03 s, Total CPU:        1.13 s
       Time step:    0.100E+00 s, Total time:     610.00 s
       Max CFL number:  0.00E+00 at (  0,  0,  0)
       Max divergence:  0.14E-16 at (  1,  1,  3)
       Min divergence: -0.28E-16 at (  1,  2,  1)
       Max VN  number:  0.00E+00 at (  0,  0,  0)
 
       Time Step    6200   June 29, 2018  15:47:30
       Pressure Iterations:      1
       Maximum Velocity Error:  0.11E-09 on Mesh   1 at (   2   2   0)
       ---------------------------------------------------------------
       CPU/step:     0.192E-03 s, Total CPU:        1.14 s
       Time step:    0.100E+00 s, Total time:     620.00 s
       Max CFL number:  0.00E+00 at (  0,  0,  0)
       Max divergence:  0.14E-16 at (  1,  1,  3)
       Min divergence: -0.28E-16 at (  1,  2,  1)
       Max VN  number:  0.00E+00 at (  0,  0,  0)
 
       Time Step    6300   June 29, 2018  15:47:30
       Pressure Iterations:      1
       Maximum Velocity Error:  0.83E-10 on Mesh   1 at (   2   2   0)
       ---------------------------------------------------------------
       CPU/step:     0.186E-03 s, Total CPU:        1.16 s
       Time step:    0.100E+00 s, Total time:     630.00 s
       Max CFL number:  0.00E+00 at (  0,  0,  0)
       Max divergence:  0.14E-16 at (  1,  1,  3)
       Min divergence: -0.28E-16 at (  1,  2,  1)
       Max VN  number:  0.00E+00 at (  0,  0,  0)
 
       Time Step    6400   June 29, 2018  15:47:30
       Pressure Iterations:      1
       Maximum Velocity Error:  0.66E-10 on Mesh   1 at (   2   2   0)
       ---------------------------------------------------------------
       CPU/step:     0.188E-03 s, Total CPU:        1.18 s
       Time step:    0.100E+00 s, Total time:     640.00 s
       Max CFL number:  0.00E+00 at (  0,  0,  0)
       Max divergence:  0.14E-16 at (  1,  1,  3)
       Min divergence: -0.28E-16 at (  1,  2,  1)
       Max VN  number:  0.00E+00 at (  0,  0,  0)
 
       Time Step    6500   June 29, 2018  15:47:30
       Pressure Iterations:      1
       Maximum Velocity Error:  0.53E-10 on Mesh   1 at (   2   2   0)
       ---------------------------------------------------------------
       CPU/step:     0.188E-03 s, Total CPU:        1.20 s
       Time step:    0.100E+00 s, Total time:     650.00 s
       Max CFL number:  0.00E+00 at (  0,  0,  0)
       Max divergence:  0.14E-16 at (  1,  1,  3)
       Min divergence: -0.28E-16 at (  1,  2,  1)
       Max VN  number:  0.00E+00 at (  0,  0,  0)
 
       Time Step    6600   June 29, 2018  15:47:30
       Pressure Iterations:      1
       Maximum Velocity Error:  0.44E-10 on Mesh   1 at (   2   2   0)
       ---------------------------------------------------------------
       CPU/step:     0.199E-03 s, Total CPU:        1.22 s
       Time step:    0.100E+00 s, Total time:     660.00 s
       Max CFL number:  0.00E+00 at (  0,  0,  0)
       Max divergence:  0.14E-16 at (  1,  1,  3)
       Min divergence: -0.28E-16 at (  1,  2,  1)
       Max VN  number:  0.00E+00 at (  0,  0,  0)
 
       Time Step    6700   June 29, 2018  15:47:30
       Pressure Iterations:      1
       Maximum Velocity Error:  0.36E-10 on Mesh   1 at (   2   2   0)
       ---------------------------------------------------------------
       CPU/step:     0.178E-03 s, Total CPU:        1.24 s
       Time step:    0.100E+00 s, Total time:     670.00 s
       Max CFL number:  0.00E+00 at (  0,  0,  0)
       Max divergence:  0.14E-16 at (  1,  1,  3)
       Min divergence: -0.28E-16 at (  1,  2,  1)
       Max VN  number:  0.00E+00 at (  0,  0,  0)
 
       Time Step    6800   June 29, 2018  15:47:30
       Pressure Iterations:      1
       Maximum Velocity Error:  0.30E-10 on Mesh   1 at (   2   2   0)
       ---------------------------------------------------------------
       CPU/step:     0.169E-03 s, Total CPU:        1.26 s
       Time step:    0.100E+00 s, Total time:     680.00 s
       Max CFL number:  0.00E+00 at (  0,  0,  0)
       Max divergence:  0.14E-16 at (  1,  1,  3)
       Min divergence: -0.28E-16 at (  1,  2,  1)
       Max VN  number:  0.00E+00 at (  0,  0,  0)
 
       Time Step    6900   June 29, 2018  15:47:30
       Pressure Iterations:      1
       Maximum Velocity Error:  0.25E-10 on Mesh   1 at (   2   2   0)
       ---------------------------------------------------------------
       CPU/step:     0.186E-03 s, Total CPU:        1.27 s
       Time step:    0.100E+00 s, Total time:     690.00 s
       Max CFL number:  0.00E+00 at (  0,  0,  0)
       Max divergence:  0.14E-16 at (  1,  1,  3)
       Min divergence: -0.28E-16 at (  1,  2,  1)
       Max VN  number:  0.00E+00 at (  0,  0,  0)
 
       Time Step    7000   June 29, 2018  15:47:30
       Pressure Iterations:      1
       Maximum Velocity Error:  0.21E-10 on Mesh   1 at (   2   2   0)
       ---------------------------------------------------------------
       CPU/step:     0.191E-03 s, Total CPU:        1.29 s
       Time step:    0.100E+00 s, Total time:     700.00 s
       Max CFL number:  0.00E+00 at (  0,  0,  0)
       Max divergence:  0.14E-16 at (  1,  1,  3)
       Min divergence: -0.28E-16 at (  1,  2,  1)
       Max VN  number:  0.00E+00 at (  0,  0,  0)
 
       Time Step    7100   June 29, 2018  15:47:30
       Pressure Iterations:      1
       Maximum Velocity Error:  0.18E-10 on Mesh   1 at (   2   2   0)
       ---------------------------------------------------------------
       CPU/step:     0.168E-03 s, Total CPU:        1.31 s
       Time step:    0.100E+00 s, Total time:     710.00 s
       Max CFL number:  0.00E+00 at (  0,  0,  0)
       Max divergence:  0.14E-16 at (  1,  1,  3)
       Min divergence: -0.28E-16 at (  1,  2,  1)
       Max VN  number:  0.00E+00 at (  0,  0,  0)
 
       Time Step    7200   June 29, 2018  15:47:30
       Pressure Iterations:      1
       Maximum Velocity Error:  0.16E-10 on Mesh   1 at (   2   2   0)
       ---------------------------------------------------------------
       CPU/step:     0.194E-03 s, Total CPU:        1.33 s
       Time step:    0.100E+00 s, Total time:     720.00 s
       Max CFL number:  0.00E+00 at (  0,  0,  0)
       Max divergence:  0.14E-16 at (  1,  1,  3)
       Min divergence: -0.28E-16 at (  1,  2,  1)
       Max VN  number:  0.00E+00 at (  0,  0,  0)
 
       Time Step    7300   June 29, 2018  15:47:30
       Pressure Iterations:      1
       Maximum Velocity Error:  0.14E-10 on Mesh   1 at (   2   2   0)
       ---------------------------------------------------------------
       CPU/step:     0.176E-03 s, Total CPU:        1.35 s
       Time step:    0.100E+00 s, Total time:     730.00 s
       Max CFL number:  0.00E+00 at (  0,  0,  0)
       Max divergence:  0.14E-16 at (  1,  1,  3)
       Min divergence: -0.28E-16 at (  1,  2,  1)
       Max VN  number:  0.00E+00 at (  0,  0,  0)
 
       Time Step    7400   June 29, 2018  15:47:30
       Pressure Iterations:      1
       Maximum Velocity Error:  0.12E-10 on Mesh   1 at (   2   2   0)
       ---------------------------------------------------------------
       CPU/step:     0.166E-03 s, Total CPU:        1.36 s
       Time step:    0.100E+00 s, Total time:     740.00 s
       Max CFL number:  0.00E+00 at (  0,  0,  0)
       Max divergence:  0.14E-16 at (  1,  1,  3)
       Min divergence: -0.28E-16 at (  1,  2,  1)
       Max VN  number:  0.00E+00 at (  0,  0,  0)
 
       Time Step    7500   June 29, 2018  15:47:30
       Pressure Iterations:      1
       Maximum Velocity Error:  0.10E-10 on Mesh   1 at (   2   2   0)
       ---------------------------------------------------------------
       CPU/step:     0.169E-03 s, Total CPU:        1.38 s
       Time step:    0.100E+00 s, Total time:     750.00 s
       Max CFL number:  0.00E+00 at (  0,  0,  0)
       Max divergence:  0.14E-16 at (  1,  1,  3)
       Min divergence: -0.28E-16 at (  1,  2,  1)
       Max VN  number:  0.00E+00 at (  0,  0,  0)
 
       Time Step    7600   June 29, 2018  15:47:30
       Pressure Iterations:      1
       Maximum Velocity Error:  0.91E-11 on Mesh   1 at (   2   2   0)
       ---------------------------------------------------------------
       CPU/step:     0.173E-03 s, Total CPU:        1.40 s
       Time step:    0.100E+00 s, Total time:     760.00 s
       Max CFL number:  0.00E+00 at (  0,  0,  0)
       Max divergence:  0.14E-16 at (  1,  1,  3)
       Min divergence: -0.28E-16 at (  1,  2,  1)
       Max VN  number:  0.00E+00 at (  0,  0,  0)
 
       Time Step    7700   June 29, 2018  15:47:30
       Pressure Iterations:      1
       Maximum Velocity Error:  0.80E-11 on Mesh   1 at (   2   2   0)
       ---------------------------------------------------------------
       CPU/step:     0.170E-03 s, Total CPU:        1.41 s
       Time step:    0.100E+00 s, Total time:     770.00 s
       Max CFL number:  0.00E+00 at (  0,  0,  0)
       Max divergence:  0.14E-16 at (  1,  1,  3)
       Min divergence: -0.28E-16 at (  1,  2,  1)
       Max VN  number:  0.00E+00 at (  0,  0,  0)
 
       Time Step    7800   June 29, 2018  15:47:30
       Pressure Iterations:      1
       Maximum Velocity Error:  0.71E-11 on Mesh   1 at (   2   2   0)
       ---------------------------------------------------------------
       CPU/step:     0.169E-03 s, Total CPU:        1.43 s
       Time step:    0.100E+00 s, Total time:     780.00 s
       Max CFL number:  0.00E+00 at (  0,  0,  0)
       Max divergence:  0.14E-16 at (  1,  1,  3)
       Min divergence: -0.28E-16 at (  1,  2,  1)
       Max VN  number:  0.00E+00 at (  0,  0,  0)
 
       Time Step    7900   June 29, 2018  15:47:30
       Pressure Iterations:      1
       Maximum Velocity Error:  0.63E-11 on Mesh   1 at (   2   2   0)
       ---------------------------------------------------------------
       CPU/step:     0.177E-03 s, Total CPU:        1.45 s
       Time step:    0.100E+00 s, Total time:     790.00 s
       Max CFL number:  0.00E+00 at (  0,  0,  0)
       Max divergence:  0.14E-16 at (  1,  1,  3)
       Min divergence: -0.28E-16 at (  1,  2,  1)
       Max VN  number:  0.00E+00 at (  0,  0,  0)
 
       Time Step    8000   June 29, 2018  15:47:30
       Pressure Iterations:      1
       Maximum Velocity Error:  0.57E-11 on Mesh   1 at (   2   2   0)
       ---------------------------------------------------------------
       CPU/step:     0.170E-03 s, Total CPU:        1.47 s
       Time step:    0.100E+00 s, Total time:     800.00 s
       Max CFL number:  0.00E+00 at (  0,  0,  0)
       Max divergence:  0.14E-16 at (  1,  1,  3)
       Min divergence: -0.28E-16 at (  1,  2,  1)
       Max VN  number:  0.00E+00 at (  0,  0,  0)
 
       Time Step    8100   June 29, 2018  15:47:30
       Pressure Iterations:      1
       Maximum Velocity Error:  0.51E-11 on Mesh   1 at (   2   2   0)
       ---------------------------------------------------------------
       CPU/step:     0.164E-03 s, Total CPU:        1.48 s
       Time step:    0.100E+00 s, Total time:     810.00 s
       Max CFL number:  0.00E+00 at (  0,  0,  0)
       Max divergence:  0.14E-16 at (  1,  1,  3)
       Min divergence: -0.28E-16 at (  1,  2,  1)
       Max VN  number:  0.00E+00 at (  0,  0,  0)
 
       Time Step    8200   June 29, 2018  15:47:30
       Pressure Iterations:      1
       Maximum Velocity Error:  0.46E-11 on Mesh   1 at (   2   2   0)
       ---------------------------------------------------------------
       CPU/step:     0.176E-03 s, Total CPU:        1.50 s
       Time step:    0.100E+00 s, Total time:     820.00 s
       Max CFL number:  0.00E+00 at (  0,  0,  0)
       Max divergence:  0.14E-16 at (  1,  1,  3)
       Min divergence: -0.28E-16 at (  1,  2,  1)
       Max VN  number:  0.00E+00 at (  0,  0,  0)
 
       Time Step    8300   June 29, 2018  15:47:30
       Pressure Iterations:      1
       Maximum Velocity Error:  0.41E-11 on Mesh   1 at (   2   2   0)
       ---------------------------------------------------------------
       CPU/step:     0.183E-03 s, Total CPU:        1.52 s
       Time step:    0.100E+00 s, Total time:     830.00 s
       Max CFL number:  0.00E+00 at (  0,  0,  0)
       Max divergence:  0.14E-16 at (  1,  1,  3)
       Min divergence: -0.28E-16 at (  1,  2,  1)
       Max VN  number:  0.00E+00 at (  0,  0,  0)
 
       Time Step    8400   June 29, 2018  15:47:30
       Pressure Iterations:      1
       Maximum Velocity Error:  0.38E-11 on Mesh   1 at (   2   2   0)
       ---------------------------------------------------------------
       CPU/step:     0.164E-03 s, Total CPU:        1.54 s
       Time step:    0.100E+00 s, Total time:     840.00 s
       Max CFL number:  0.00E+00 at (  0,  0,  0)
       Max divergence:  0.14E-16 at (  1,  1,  3)
       Min divergence: -0.28E-16 at (  1,  2,  1)
       Max VN  number:  0.00E+00 at (  0,  0,  0)
 
       Time Step    8500   June 29, 2018  15:47:30
       Pressure Iterations:      1
       Maximum Velocity Error:  0.34E-11 on Mesh   1 at (   2   2   0)
       ---------------------------------------------------------------
       CPU/step:     0.178E-03 s, Total CPU:        1.55 s
       Time step:    0.100E+00 s, Total time:     850.00 s
       Max CFL number:  0.00E+00 at (  0,  0,  0)
       Max divergence:  0.14E-16 at (  1,  1,  3)
       Min divergence: -0.28E-16 at (  1,  2,  1)
       Max VN  number:  0.00E+00 at (  0,  0,  0)
 
       Time Step    8600   June 29, 2018  15:47:31
       Pressure Iterations:      1
       Maximum Velocity Error:  0.31E-11 on Mesh   1 at (   2   2   0)
       ---------------------------------------------------------------
       CPU/step:     0.178E-03 s, Total CPU:        1.57 s
       Time step:    0.100E+00 s, Total time:     860.00 s
       Max CFL number:  0.00E+00 at (  0,  0,  0)
       Max divergence:  0.14E-16 at (  1,  1,  3)
       Min divergence: -0.28E-16 at (  1,  2,  1)
       Max VN  number:  0.00E+00 at (  0,  0,  0)
 
       Time Step    8700   June 29, 2018  15:47:31
       Pressure Iterations:      1
       Maximum Velocity Error:  0.29E-11 on Mesh   1 at (   2   2   0)
       ---------------------------------------------------------------
       CPU/step:     0.177E-03 s, Total CPU:        1.59 s
       Time step:    0.100E+00 s, Total time:     870.00 s
       Max CFL number:  0.00E+00 at (  0,  0,  0)
       Max divergence:  0.14E-16 at (  1,  1,  3)
       Min divergence: -0.28E-16 at (  1,  2,  1)
       Max VN  number:  0.00E+00 at (  0,  0,  0)
 
       Time Step    8800   June 29, 2018  15:47:31
       Pressure Iterations:      1
       Maximum Velocity Error:  0.26E-11 on Mesh   1 at (   2   2   0)
       ---------------------------------------------------------------
       CPU/step:     0.173E-03 s, Total CPU:        1.61 s
       Time step:    0.100E+00 s, Total time:     880.00 s
       Max CFL number:  0.00E+00 at (  0,  0,  0)
       Max divergence:  0.14E-16 at (  1,  1,  3)
       Min divergence: -0.28E-16 at (  1,  2,  1)
       Max VN  number:  0.00E+00 at (  0,  0,  0)
 
       Time Step    8900   June 29, 2018  15:47:31
       Pressure Iterations:      1
       Maximum Velocity Error:  0.24E-11 on Mesh   1 at (   2   2   0)
       ---------------------------------------------------------------
       CPU/step:     0.171E-03 s, Total CPU:        1.62 s
       Time step:    0.100E+00 s, Total time:     890.00 s
       Max CFL number:  0.00E+00 at (  0,  0,  0)
       Max divergence:  0.14E-16 at (  1,  1,  3)
       Min divergence: -0.28E-16 at (  1,  2,  1)
       Max VN  number:  0.00E+00 at (  0,  0,  0)
 
       Time Step    9000   June 29, 2018  15:47:31
       Pressure Iterations:      1
       Maximum Velocity Error:  0.22E-11 on Mesh   1 at (   2   2   0)
       ---------------------------------------------------------------
       CPU/step:     0.166E-03 s, Total CPU:        1.64 s
       Time step:    0.100E+00 s, Total time:     900.00 s
       Max CFL number:  0.00E+00 at (  0,  0,  0)
       Max divergence:  0.14E-16 at (  1,  1,  3)
       Min divergence: -0.28E-16 at (  1,  2,  1)
       Max VN  number:  0.00E+00 at (  0,  0,  0)
 
       Time Step    9100   June 29, 2018  15:47:31
       Pressure Iterations:      1
       Maximum Velocity Error:  0.20E-11 on Mesh   1 at (   2   2   0)
       ---------------------------------------------------------------
       CPU/step:     0.172E-03 s, Total CPU:        1.66 s
       Time step:    0.100E+00 s, Total time:     910.00 s
       Max CFL number:  0.00E+00 at (  0,  0,  0)
       Max divergence:  0.14E-16 at (  1,  1,  3)
       Min divergence: -0.28E-16 at (  1,  2,  1)
       Max VN  number:  0.00E+00 at (  0,  0,  0)
 
       Time Step    9200   June 29, 2018  15:47:31
       Pressure Iterations:      1
       Maximum Velocity Error:  0.19E-11 on Mesh   1 at (   2   2   0)
       ---------------------------------------------------------------
       CPU/step:     0.185E-03 s, Total CPU:        1.68 s
       Time step:    0.100E+00 s, Total time:     920.00 s
       Max CFL number:  0.00E+00 at (  0,  0,  0)
       Max divergence:  0.14E-16 at (  1,  1,  3)
       Min divergence: -0.28E-16 at (  1,  2,  1)
       Max VN  number:  0.00E+00 at (  0,  0,  0)
 
       Time Step    9300   June 29, 2018  15:47:31
       Pressure Iterations:      1
       Maximum Velocity Error:  0.18E-11 on Mesh   1 at (   2   2   0)
       ---------------------------------------------------------------
       CPU/step:     0.188E-03 s, Total CPU:        1.69 s
       Time step:    0.100E+00 s, Total time:     930.00 s
       Max CFL number:  0.00E+00 at (  0,  0,  0)
       Max divergence:  0.14E-16 at (  1,  1,  3)
       Min divergence: -0.28E-16 at (  1,  2,  1)
       Max VN  number:  0.00E+00 at (  0,  0,  0)
 
       Time Step    9400   June 29, 2018  15:47:31
       Pressure Iterations:      1
       Maximum Velocity Error:  0.16E-11 on Mesh   1 at (   2   2   0)
       ---------------------------------------------------------------
       CPU/step:     0.175E-03 s, Total CPU:        1.71 s
       Time step:    0.100E+00 s, Total time:     940.00 s
       Max CFL number:  0.00E+00 at (  0,  0,  0)
       Max divergence:  0.14E-16 at (  1,  1,  3)
       Min divergence: -0.28E-16 at (  1,  2,  1)
       Max VN  number:  0.00E+00 at (  0,  0,  0)
 
       Time Step    9500   June 29, 2018  15:47:31
       Pressure Iterations:      1
       Maximum Velocity Error:  0.15E-11 on Mesh   1 at (   2   2   0)
       ---------------------------------------------------------------
       CPU/step:     0.168E-03 s, Total CPU:        1.73 s
       Time step:    0.100E+00 s, Total time:     950.00 s
       Max CFL number:  0.00E+00 at (  0,  0,  0)
       Max divergence:  0.14E-16 at (  1,  1,  3)
       Min divergence: -0.28E-16 at (  1,  2,  1)
       Max VN  number:  0.00E+00 at (  0,  0,  0)
 
       Time Step    9600   June 29, 2018  15:47:31
       Pressure Iterations:      1
       Maximum Velocity Error:  0.14E-11 on Mesh   1 at (   2   2   0)
       ---------------------------------------------------------------
       CPU/step:     0.196E-03 s, Total CPU:        1.75 s
       Time step:    0.100E+00 s, Total time:     960.00 s
       Max CFL number:  0.00E+00 at (  0,  0,  0)
       Max divergence:  0.14E-16 at (  1,  1,  3)
       Min divergence: -0.28E-16 at (  1,  2,  1)
       Max VN  number:  0.00E+00 at (  0,  0,  0)
 
       Time Step    9700   June 29, 2018  15:47:31
       Pressure Iterations:      1
       Maximum Velocity Error:  0.13E-11 on Mesh   1 at (   2   2   0)
       ---------------------------------------------------------------
       CPU/step:     0.170E-03 s, Total CPU:        1.76 s
       Time step:    0.100E+00 s, Total time:     970.00 s
       Max CFL number:  0.00E+00 at (  0,  0,  0)
       Max divergence:  0.14E-16 at (  1,  1,  3)
       Min divergence: -0.28E-16 at (  1,  2,  1)
       Max VN  number:  0.00E+00 at (  0,  0,  0)
 
       Time Step    9800   June 29, 2018  15:47:31
       Pressure Iterations:      1
       Maximum Velocity Error:  0.12E-11 on Mesh   1 at (   2   2   0)
       ---------------------------------------------------------------
       CPU/step:     0.169E-03 s, Total CPU:        1.78 s
       Time step:    0.100E+00 s, Total time:     980.00 s
       Max CFL number:  0.00E+00 at (  0,  0,  0)
       Max divergence:  0.14E-16 at (  1,  1,  3)
       Min divergence: -0.28E-16 at (  1,  2,  1)
       Max VN  number:  0.00E+00 at (  0,  0,  0)
 
       Time Step    9900   June 29, 2018  15:47:31
       Pressure Iterations:      1
       Maximum Velocity Error:  0.12E-11 on Mesh   1 at (   2   2   0)
       ---------------------------------------------------------------
       CPU/step:     0.203E-03 s, Total CPU:        1.80 s
       Time step:    0.100E+00 s, Total time:     990.00 s
       Max CFL number:  0.00E+00 at (  0,  0,  0)
       Max divergence:  0.14E-16 at (  1,  1,  3)
       Min divergence: -0.28E-16 at (  1,  2,  1)
       Max VN  number:  0.00E+00 at (  0,  0,  0)
 
       Time Step   10000   June 29, 2018  15:47:31
       Pressure Iterations:      1
       Maximum Velocity Error:  0.11E-11 on Mesh   1 at (   2   2   0)
       ---------------------------------------------------------------
       CPU/step:     0.196E-03 s, Total CPU:        1.82 s
       Time step:    0.100E+00 s, Total time:    1000.00 s
       Max CFL number:  0.00E+00 at (  0,  0,  0)
       Max divergence:  0.14E-16 at (  1,  1,  3)
       Min divergence: -0.28E-16 at (  1,  2,  1)
       Max VN  number:  0.00E+00 at (  0,  0,  0)
 
       Time Step   10100   June 29, 2018  15:47:31
       Pressure Iterations:      1
       Maximum Velocity Error:  0.10E-11 on Mesh   1 at (   2   2   0)
       ---------------------------------------------------------------
       CPU/step:     0.172E-03 s, Total CPU:        1.84 s
       Time step:    0.100E+00 s, Total time:    1010.00 s
       Max CFL number:  0.00E+00 at (  0,  0,  0)
       Max divergence:  0.14E-16 at (  1,  1,  3)
       Min divergence: -0.28E-16 at (  1,  2,  1)
       Max VN  number:  0.00E+00 at (  0,  0,  0)
 
       Time Step   10200   June 29, 2018  15:47:31
       Pressure Iterations:      1
       Maximum Velocity Error:  0.96E-12 on Mesh   1 at (   2   2   0)
       ---------------------------------------------------------------
       CPU/step:     0.191E-03 s, Total CPU:        1.86 s
       Time step:    0.100E+00 s, Total time:    1020.00 s
       Max CFL number:  0.00E+00 at (  0,  0,  0)
       Max divergence:  0.14E-16 at (  1,  1,  3)
       Min divergence: -0.28E-16 at (  1,  2,  1)
       Max VN  number:  0.00E+00 at (  0,  0,  0)
 
       Time Step   10300   June 29, 2018  15:47:31
       Pressure Iterations:      1
       Maximum Velocity Error:  0.91E-12 on Mesh   1 at (   2   2   0)
       ---------------------------------------------------------------
       CPU/step:     0.193E-03 s, Total CPU:        1.88 s
       Time step:    0.100E+00 s, Total time:    1030.00 s
       Max CFL number:  0.00E+00 at (  0,  0,  0)
       Max divergence:  0.14E-16 at (  1,  1,  3)
       Min divergence: -0.28E-16 at (  1,  2,  1)
       Max VN  number:  0.00E+00 at (  0,  0,  0)
 
       Time Step   10400   June 29, 2018  15:47:31
       Pressure Iterations:      1
       Maximum Velocity Error:  0.86E-12 on Mesh   1 at (   2   2   0)
       ---------------------------------------------------------------
       CPU/step:     0.188E-03 s, Total CPU:        1.90 s
       Time step:    0.100E+00 s, Total time:    1040.00 s
       Max CFL number:  0.00E+00 at (  0,  0,  0)
       Max divergence:  0.14E-16 at (  1,  1,  3)
       Min divergence: -0.28E-16 at (  1,  2,  1)
       Max VN  number:  0.00E+00 at (  0,  0,  0)
 
       Time Step   10500   June 29, 2018  15:47:31
       Pressure Iterations:      1
       Maximum Velocity Error:  0.81E-12 on Mesh   1 at (   2   2   0)
       ---------------------------------------------------------------
       CPU/step:     0.177E-03 s, Total CPU:        1.91 s
       Time step:    0.100E+00 s, Total time:    1050.00 s
       Max CFL number:  0.00E+00 at (  0,  0,  0)
       Max divergence:  0.14E-16 at (  1,  1,  3)
       Min divergence: -0.28E-16 at (  1,  2,  1)
       Max VN  number:  0.00E+00 at (  0,  0,  0)
 
       Time Step   10600   June 29, 2018  15:47:31
       Pressure Iterations:      1
       Maximum Velocity Error:  0.76E-12 on Mesh   1 at (   2   2   0)
       ---------------------------------------------------------------
       CPU/step:     0.171E-03 s, Total CPU:        1.93 s
       Time step:    0.100E+00 s, Total time:    1060.00 s
       Max CFL number:  0.00E+00 at (  0,  0,  0)
       Max divergence:  0.14E-16 at (  1,  1,  3)
       Min divergence: -0.28E-16 at (  1,  2,  1)
       Max VN  number:  0.00E+00 at (  0,  0,  0)
 
       Time Step   10700   June 29, 2018  15:47:31
       Pressure Iterations:      1
       Maximum Velocity Error:  0.72E-12 on Mesh   1 at (   2   2   0)
       ---------------------------------------------------------------
       CPU/step:     0.166E-03 s, Total CPU:        1.95 s
       Time step:    0.100E+00 s, Total time:    1070.00 s
       Max CFL number:  0.00E+00 at (  0,  0,  0)
       Max divergence:  0.14E-16 at (  1,  1,  3)
       Min divergence: -0.28E-16 at (  1,  2,  1)
       Max VN  number:  0.00E+00 at (  0,  0,  0)
 
       Time Step   10800   June 29, 2018  15:47:31
       Pressure Iterations:      1
       Maximum Velocity Error:  0.69E-12 on Mesh   1 at (   2   2   0)
       ---------------------------------------------------------------
       CPU/step:     0.174E-03 s, Total CPU:        1.96 s
       Time step:    0.100E+00 s, Total time:    1080.00 s
       Max CFL number:  0.00E+00 at (  0,  0,  0)
       Max divergence:  0.14E-16 at (  1,  1,  3)
       Min divergence: -0.28E-16 at (  1,  2,  1)
       Max VN  number:  0.00E+00 at (  0,  0,  0)
 
       Time Step   10900   June 29, 2018  15:47:31
       Pressure Iterations:      1
       Maximum Velocity Error:  0.65E-12 on Mesh   1 at (   2   2   0)
       ---------------------------------------------------------------
       CPU/step:     0.170E-03 s, Total CPU:        1.98 s
       Time step:    0.100E+00 s, Total time:    1090.00 s
       Max CFL number:  0.00E+00 at (  0,  0,  0)
       Max divergence:  0.14E-16 at (  1,  1,  3)
       Min divergence: -0.28E-16 at (  1,  2,  1)
       Max VN  number:  0.00E+00 at (  0,  0,  0)
 
       Time Step   11000   June 29, 2018  15:47:31
       Pressure Iterations:      1
       Maximum Velocity Error:  0.62E-12 on Mesh   1 at (   2   2   0)
       ---------------------------------------------------------------
       CPU/step:     0.172E-03 s, Total CPU:        2.00 s
       Time step:    0.100E+00 s, Total time:    1100.00 s
       Max CFL number:  0.00E+00 at (  0,  0,  0)
       Max divergence:  0.14E-16 at (  1,  1,  3)
       Min divergence: -0.28E-16 at (  1,  2,  1)
       Max VN  number:  0.00E+00 at (  0,  0,  0)
 
       Time Step   11100   June 29, 2018  15:47:31
       Pressure Iterations:      1
       Maximum Velocity Error:  0.59E-12 on Mesh   1 at (   2   2   0)
       ---------------------------------------------------------------
       CPU/step:     0.179E-03 s, Total CPU:        2.02 s
       Time step:    0.100E+00 s, Total time:    1110.00 s
       Max CFL number:  0.00E+00 at (  0,  0,  0)
       Max divergence:  0.14E-16 at (  1,  1,  3)
       Min divergence: -0.28E-16 at (  1,  2,  1)
       Max VN  number:  0.00E+00 at (  0,  0,  0)
 
       Time Step   11200   June 29, 2018  15:47:31
       Pressure Iterations:      1
       Maximum Velocity Error:  0.56E-12 on Mesh   1 at (   2   2   0)
       ---------------------------------------------------------------
       CPU/step:     0.200E-03 s, Total CPU:        2.04 s
       Time step:    0.100E+00 s, Total time:    1120.00 s
       Max CFL number:  0.00E+00 at (  0,  0,  0)
       Max divergence:  0.14E-16 at (  1,  1,  3)
       Min divergence: -0.28E-16 at (  1,  2,  1)
[...]
       Max VN  number:  0.00E+00 at (  0,  0,  0)
 
       Time Step   11700   June 29, 2018  15:47:31
       Pressure Iterations:      1
       Maximum Velocity Error:  0.44E-12 on Mesh   1 at (   2   2   0)
       ---------------------------------------------------------------
       CPU/step:     0.170E-03 s, Total CPU:        2.12 s
       Time step:    0.100E+00 s, Total time:    1170.00 s
       Max CFL number:  0.00E+00 at (  0,  0,  0)
       Max divergence:  0.14E-16 at (  1,  1,  3)
       Min divergence: -0.28E-16 at (  1,  2,  1)
       Max VN  number:  0.00E+00 at (  0,  0,  0)
 
       Time Step   11800   June 29, 2018  15:47:31
       Pressure Iterations:      1
       Maximum Velocity Error:  0.42E-12 on Mesh   1 at (   2   2   0)
       ---------------------------------------------------------------
       CPU/step:     0.174E-03 s, Total CPU:        2.14 s
       Time step:    0.100E+00 s, Total time:    1180.00 s
       Max CFL number:  0.00E+00 at (  0,  0,  0)
       Max divergence:  0.14E-16 at (  1,  1,  3)
       Min divergence: -0.28E-16 at (  1,  2,  1)
       Max VN  number:  0.00E+00 at (  0,  0,  0)
 
       Time Step   11900   June 29, 2018  15:47:31
       Pressure Iterations:      1
       Maximum Velocity Error:  0.40E-12 on Mesh   1 at (   2   2   0)
       ---------------------------------------------------------------
       CPU/step:     0.174E-03 s, Total CPU:        2.16 s
       Time step:    0.100E+00 s, Total time:    1190.00 s
       Max CFL number:  0.00E+00 at (  0,  0,  0)
       Max divergence:  0.14E-16 at (  1,  1,  3)
       Min divergence: -0.28E-16 at (  1,  2,  1)
       Max VN  number:  0.00E+00 at (  0,  0,  0)
 
       Time Step   12000   June 29, 2018  15:47:31
       Pressure Iterations:      1
       Maximum Velocity Error:  0.39E-12 on Mesh   1 at (   2   2   0)
       ---------------------------------------------------------------
       CPU/step:     0.181E-03 s, Total CPU:        2.18 s
       Time step:    0.100E+00 s, Total time:    1200.00 s
       Max CFL number:  0.00E+00 at (  0,  0,  0)
       Max divergence:  0.14E-16 at (  1,  1,  3)
       Min divergence: -0.28E-16 at (  1,  2,  1)
       Max VN  number:  0.00E+00 at (  0,  0,  0)
 
       Time Step   12100   June 29, 2018  15:47:31
       Pressure Iterations:      1
       Maximum Velocity Error:  0.37E-12 on Mesh   1 at (   2   2   0)
       ---------------------------------------------------------------
       CPU/step:     0.189E-03 s, Total CPU:        2.20 s
       Time step:    0.100E+00 s, Total time:    1210.00 s
       Max CFL number:  0.00E+00 at (  0,  0,  0)
       Max divergence:  0.14E-16 at (  1,  1,  3)
       Min divergence: -0.28E-16 at (  1,  2,  1)
       Max VN  number:  0.00E+00 at (  0,  0,  0)
 
       Time Step   12200   June 29, 2018  15:47:31
       Pressure Iterations:      1
       Maximum Velocity Error:  0.35E-12 on Mesh   1 at (   2   2   0)
       ---------------------------------------------------------------
       CPU/step:     0.174E-03 s, Total CPU:        2.21 s
       Time step:    0.100E+00 s, Total time:    1220.00 s
       Max CFL number:  0.00E+00 at (  0,  0,  0)
       Max divergence:  0.14E-16 at (  1,  1,  3)
       Min divergence: -0.28E-16 at (  1,  2,  1)
       Max VN  number:  0.00E+00 at (  0,  0,  0)
 
       Time Step   12300   June 29, 2018  15:47:31
       Pressure Iterations:      1
       Maximum Velocity Error:  0.34E-12 on Mesh   1 at (   2   2   0)
       ---------------------------------------------------------------
       CPU/step:     0.178E-03 s, Total CPU:        2.23 s
       Time step:    0.100E+00 s, Total time:    1230.00 s
       Max CFL number:  0.00E+00 at (  0,  0,  0)
       Max divergence:  0.14E-16 at (  1,  1,  3)
       Min divergence: -0.28E-16 at (  1,  2,  1)
       Max VN  number:  0.00E+00 at (  0,  0,  0)
 
       Time Step   12400   June 29, 2018  15:47:31
       Pressure Iterations:      1
       Maximum Velocity Error:  0.33E-12 on Mesh   1 at (   2   2   0)
       ---------------------------------------------------------------
       CPU/step:     0.188E-03 s, Total CPU:        2.25 s
       Time step:    0.100E+00 s, Total time:    1240.00 s
       Max CFL number:  0.00E+00 at (  0,  0,  0)
       Max divergence:  0.14E-16 at (  1,  1,  3)
       Min divergence: -0.28E-16 at (  1,  2,  1)
       Max VN  number:  0.00E+00 at (  0,  0,  0)
 
       Time Step   12500   June 29, 2018  15:47:31
       Pressure Iterations:      1
       Maximum Velocity Error:  0.31E-12 on Mesh   1 at (   2   2   0)
       ---------------------------------------------------------------
       CPU/step:     0.188E-03 s, Total CPU:        2.27 s
       Time step:    0.100E+00 s, Total time:    1250.00 s
       Max CFL number:  0.00E+00 at (  0,  0,  0)
       Max divergence:  0.14E-16 at (  1,  1,  3)
       Min divergence: -0.28E-16 at (  1,  2,  1)
       Max VN  number:  0.00E+00 at (  0,  0,  0)
 
       Time Step   12600   June 29, 2018  15:47:31
       Pressure Iterations:      1
       Maximum Velocity Error:  0.30E-12 on Mesh   1 at (   2   2   0)
       ---------------------------------------------------------------
       CPU/step:     0.189E-03 s, Total CPU:        2.29 s
       Time step:    0.100E+00 s, Total time:    1260.00 s
       Max CFL number:  0.00E+00 at (  0,  0,  0)
       Max divergence:  0.14E-16 at (  1,  1,  3)
       Min divergence: -0.28E-16 at (  1,  2,  1)
       Max VN  number:  0.00E+00 at (  0,  0,  0)
 
       Time Step   12700   June 29, 2018  15:47:31
       Pressure Iterations:      1
       Maximum Velocity Error:  0.29E-12 on Mesh   1 at (   2   2   0)
       ---------------------------------------------------------------
       CPU/step:     0.189E-03 s, Total CPU:        2.31 s
       Time step:    0.100E+00 s, Total time:    1270.00 s
       Max CFL number:  0.00E+00 at (  0,  0,  0)
       Max divergence:  0.14E-16 at (  1,  1,  3)
       Min divergence: -0.28E-16 at (  1,  2,  1)
       Max VN  number:  0.00E+00 at (  0,  0,  0)
 
       Time Step   12800   June 29, 2018  15:47:31
       Pressure Iterations:      1
       Maximum Velocity Error:  0.28E-12 on Mesh   1 at (   2   2   0)
       ---------------------------------------------------------------
       CPU/step:     0.172E-03 s, Total CPU:        2.32 s
       Time step:    0.100E+00 s, Total time:    1280.00 s
       Max CFL number:  0.00E+00 at (  0,  0,  0)
       Max divergence:  0.14E-16 at (  1,  1,  3)
       Min divergence: -0.28E-16 at (  1,  2,  1)
       Max VN  number:  0.00E+00 at (  0,  0,  0)
 
       Time Step   12900   June 29, 2018  15:47:31
       Pressure Iterations:      1
       Maximum Velocity Error:  0.27E-12 on Mesh   1 at (   2   2   0)
       ---------------------------------------------------------------
       CPU/step:     0.176E-03 s, Total CPU:        2.34 s
       Time step:    0.100E+00 s, Total time:    1290.00 s
       Max CFL number:  0.00E+00 at (  0,  0,  0)
       Max divergence:  0.14E-16 at (  1,  1,  3)
       Min divergence: -0.28E-16 at (  1,  2,  1)
       Max VN  number:  0.00E+00 at (  0,  0,  0)
 
       Time Step   13000   June 29, 2018  15:47:31
       Pressure Iterations:      1
       Maximum Velocity Error:  0.26E-12 on Mesh   1 at (   2   2   0)
       ---------------------------------------------------------------
       CPU/step:     0.219E-03 s, Total CPU:        2.36 s
       Time step:    0.100E+00 s, Total time:    1300.00 s
       Max CFL number:  0.00E+00 at (  0,  0,  0)
       Max divergence:  0.14E-16 at (  1,  1,  3)
       Min divergence: -0.28E-16 at (  1,  2,  1)
       Max VN  number:  0.00E+00 at (  0,  0,  0)
 
       Time Step   13100   June 29, 2018  15:47:31
       Pressure Iterations:      1
       Maximum Velocity Error:  0.25E-12 on Mesh   1 at (   2   2   0)
       ---------------------------------------------------------------
       CPU/step:     0.168E-03 s, Total CPU:        2.38 s
       Time step:    0.100E+00 s, Total time:    1310.00 s
       Max CFL number:  0.00E+00 at (  0,  0,  0)
       Max divergence:  0.14E-16 at (  1,  1,  3)
       Min divergence: -0.28E-16 at (  1,  2,  1)
       Max VN  number:  0.00E+00 at (  0,  0,  0)
 
       Time Step   13200   June 29, 2018  15:47:32
       Pressure Iterations:      1
       Maximum Velocity Error:  0.24E-12 on Mesh   1 at (   2   2   0)
       ---------------------------------------------------------------
       CPU/step:     0.176E-03 s, Total CPU:        2.40 s
       Time step:    0.100E+00 s, Total time:    1320.00 s
       Max CFL number:  0.00E+00 at (  0,  0,  0)
       Max divergence:  0.14E-16 at (  1,  1,  3)
       Min divergence: -0.28E-16 at (  1,  2,  1)
       Max VN  number:  0.00E+00 at (  0,  0,  0)
 
       Time Step   13300   June 29, 2018  15:47:32
       Pressure Iterations:      1
       Maximum Velocity Error:  0.23E-12 on Mesh   1 at (   2   2   0)
       ---------------------------------------------------------------
       CPU/step:     0.177E-03 s, Total CPU:        2.42 s
       Time step:    0.100E+00 s, Total time:    1330.00 s
       Max CFL number:  0.00E+00 at (  0,  0,  0)
       Max divergence:  0.14E-16 at (  1,  1,  3)
       Min divergence: -0.28E-16 at (  1,  2,  1)
       Max VN  number:  0.00E+00 at (  0,  0,  0)
 
       Time Step   13400   June 29, 2018  15:47:32
       Pressure Iterations:      1
       Maximum Velocity Error:  0.22E-12 on Mesh   1 at (   2   2   0)
       ---------------------------------------------------------------
       CPU/step:     0.169E-03 s, Total CPU:        2.43 s
       Time step:    0.100E+00 s, Total time:    1340.00 s
       Max CFL number:  0.00E+00 at (  0,  0,  0)
       Max divergence:  0.14E-16 at (  1,  1,  3)
       Min divergence: -0.28E-16 at (  1,  2,  1)
       Max VN  number:  0.00E+00 at (  0,  0,  0)
 
       Time Step   13500   June 29, 2018  15:47:32
       Pressure Iterations:      1
       Maximum Velocity Error:  0.22E-12 on Mesh   1 at (   2   2   0)
       ---------------------------------------------------------------
       CPU/step:     0.170E-03 s, Total CPU:        2.45 s
       Time step:    0.100E+00 s, Total time:    1350.00 s
       Max CFL number:  0.00E+00 at (  0,  0,  0)
       Max divergence:  0.14E-16 at (  1,  1,  3)
       Min divergence: -0.28E-16 at (  1,  2,  1)
       Max VN  number:  0.00E+00 at (  0,  0,  0)
 
       Time Step   13600   June 29, 2018  15:47:32
       Pressure Iterations:      1
       Maximum Velocity Error:  0.21E-12 on Mesh   1 at (   2   2   0)
       ---------------------------------------------------------------
       CPU/step:     0.171E-03 s, Total CPU:        2.47 s
       Time step:    0.100E+00 s, Total time:    1360.00 s
       Max CFL number:  0.00E+00 at (  0,  0,  0)
       Max divergence:  0.14E-16 at (  1,  1,  3)
       Min divergence: -0.28E-16 at (  1,  2,  1)
       Max VN  number:  0.00E+00 at (  0,  0,  0)
 
       Time Step   13700   June 29, 2018  15:47:32
       Pressure Iterations:      1
       Maximum Velocity Error:  0.20E-12 on Mesh   1 at (   2   2   0)
       ---------------------------------------------------------------
       CPU/step:     0.183E-03 s, Total CPU:        2.49 s
       Time step:    0.100E+00 s, Total time:    1370.00 s
       Max CFL number:  0.00E+00 at (  0,  0,  0)
       Max divergence:  0.14E-16 at (  1,  1,  3)
       Min divergence: -0.28E-16 at (  1,  2,  1)
       Max VN  number:  0.00E+00 at (  0,  0,  0)
 
       Time Step   13800   June 29, 2018  15:47:32
       Pressure Iterations:      1
       Maximum Velocity Error:  0.19E-12 on Mesh   1 at (   2   2   0)
       ---------------------------------------------------------------
       CPU/step:     0.187E-03 s, Total CPU:        2.50 s
       Time step:    0.100E+00 s, Total time:    1380.00 s
       Max CFL number:  0.00E+00 at (  0,  0,  0)
       Max divergence:  0.14E-16 at (  1,  1,  3)
       Min divergence: -0.28E-16 at (  1,  2,  1)
       Max VN  number:  0.00E+00 at (  0,  0,  0)
 
       Time Step   13900   June 29, 2018  15:47:32
       Pressure Iterations:      1
       Maximum Velocity Error:  0.19E-12 on Mesh   1 at (   2   2   0)
       ---------------------------------------------------------------
       CPU/step:     0.176E-03 s, Total CPU:        2.52 s
       Time step:    0.100E+00 s, Total time:    1390.00 s
       Max CFL number:  0.00E+00 at (  0,  0,  0)
       Max divergence:  0.14E-16 at (  1,  1,  3)
       Min divergence: -0.28E-16 at (  1,  2,  1)
       Max VN  number:  0.00E+00 at (  0,  0,  0)
 
       Time Step   14000   June 29, 2018  15:47:32
       Pressure Iterations:      1
       Maximum Velocity Error:  0.18E-12 on Mesh   1 at (   2   2   0)
       ---------------------------------------------------------------
       CPU/step:     0.166E-03 s, Total CPU:        2.54 s
       Time step:    0.100E+00 s, Total time:    1400.00 s
       Max CFL number:  0.00E+00 at (  0,  0,  0)
       Max divergence:  0.14E-16 at (  1,  1,  3)
       Min divergence: -0.28E-16 at (  1,  2,  1)
       Max VN  number:  0.00E+00 at (  0,  0,  0)
 
       Time Step   14100   June 29, 2018  15:47:32
       Pressure Iterations:      1
       Maximum Velocity Error:  0.18E-12 on Mesh   1 at (   2   2   0)
       ---------------------------------------------------------------
       CPU/step:     0.164E-03 s, Total CPU:        2.55 s
       Time step:    0.100E+00 s, Total time:    1410.00 s
       Max CFL number:  0.00E+00 at (  0,  0,  0)
       Max divergence:  0.14E-16 at (  1,  1,  3)
       Min divergence: -0.28E-16 at (  1,  2,  1)
       Max VN  number:  0.00E+00 at (  0,  0,  0)
 
       Time Step   14200   June 29, 2018  15:47:32
       Pressure Iterations:      1
       Maximum Velocity Error:  0.17E-12 on Mesh   1 at (   2   2   0)
       ---------------------------------------------------------------
       CPU/step:     0.190E-03 s, Total CPU:        2.57 s
       Time step:    0.100E+00 s, Total time:    1420.00 s
       Max CFL number:  0.00E+00 at (  0,  0,  0)
       Max divergence:  0.14E-16 at (  1,  1,  3)
       Min divergence: -0.28E-16 at (  1,  2,  1)
       Max VN  number:  0.00E+00 at (  0,  0,  0)
 
       Time Step   14300   June 29, 2018  15:47:32
       Pressure Iterations:      1
       Maximum Velocity Error:  0.17E-12 on Mesh   1 at (   2   2   0)
       ---------------------------------------------------------------
       CPU/step:     0.171E-03 s, Total CPU:        2.59 s
       Time step:    0.100E+00 s, Total time:    1430.00 s
       Max CFL number:  0.00E+00 at (  0,  0,  0)
       Max divergence:  0.14E-16 at (  1,  1,  3)
       Min divergence: -0.28E-16 at (  1,  2,  1)
       Max VN  number:  0.00E+00 at (  0,  0,  0)
 
       Time Step   14400   June 29, 2018  15:47:32
       Pressure Iterations:      1
       Maximum Velocity Error:  0.16E-12 on Mesh   1 at (   2   2   0)
       ---------------------------------------------------------------
       CPU/step:     0.189E-03 s, Total CPU:        2.61 s
       Time step:    0.100E+00 s, Total time:    1440.00 s
       Max CFL number:  0.00E+00 at (  0,  0,  0)
       Max divergence:  0.14E-16 at (  1,  1,  3)
       Min divergence: -0.28E-16 at (  1,  2,  1)
       Max VN  number:  0.00E+00 at (  0,  0,  0)
 
       Time Step   14500   June 29, 2018  15:47:32
       Pressure Iterations:      1
       Maximum Velocity Error:  0.16E-12 on Mesh   1 at (   2   2   0)
       ---------------------------------------------------------------
       CPU/step:     0.192E-03 s, Total CPU:        2.63 s
       Time step:    0.100E+00 s, Total time:    1450.00 s
       Max CFL number:  0.00E+00 at (  0,  0,  0)
       Max divergence:  0.14E-16 at (  1,  1,  3)
       Min divergence: -0.28E-16 at (  1,  2,  1)
       Max VN  number:  0.00E+00 at (  0,  0,  0)
 
       Time Step   14600   June 29, 2018  15:47:32
       Pressure Iterations:      1
       Maximum Velocity Error:  0.15E-12 on Mesh   1 at (   2   2   0)
       ---------------------------------------------------------------
       CPU/step:     0.171E-03 s, Total CPU:        2.65 s
       Time step:    0.100E+00 s, Total time:    1460.00 s
       Max CFL number:  0.00E+00 at (  0,  0,  0)
       Max divergence:  0.14E-16 at (  1,  1,  3)
       Min divergence: -0.28E-16 at (  1,  2,  1)
       Max VN  number:  0.00E+00 at (  0,  0,  0)
 
       Time Step   14700   June 29, 2018  15:47:32
       Pressure Iterations:      1
       Maximum Velocity Error:  0.15E-12 on Mesh   1 at (   2   2   0)
       ---------------------------------------------------------------
       CPU/step:     0.174E-03 s, Total CPU:        2.66 s
       Time step:    0.100E+00 s, Total time:    1470.00 s
       Max CFL number:  0.00E+00 at (  0,  0,  0)
       Max divergence:  0.14E-16 at (  1,  1,  3)
       Min divergence: -0.28E-16 at (  1,  2,  1)
       Max VN  number:  0.00E+00 at (  0,  0,  0)
 
       Time Step   14800   June 29, 2018  15:47:32
       Pressure Iterations:      1
       Maximum Velocity Error:  0.14E-12 on Mesh   1 at (   2   2   0)
       ---------------------------------------------------------------
       CPU/step:     0.177E-03 s, Total CPU:        2.68 s
       Time step:    0.100E+00 s, Total time:    1480.00 s
       Max CFL number:  0.00E+00 at (  0,  0,  0)
       Max divergence:  0.14E-16 at (  1,  1,  3)
       Min divergence: -0.28E-16 at (  1,  2,  1)
       Max VN  number:  0.00E+00 at (  0,  0,  0)
 
       Time Step   14900   June 29, 2018  15:47:32
       Pressure Iterations:      1
       Maximum Velocity Error:  0.14E-12 on Mesh   1 at (   2   2   0)
       ---------------------------------------------------------------
       CPU/step:     0.173E-03 s, Total CPU:        2.70 s
       Time step:    0.100E+00 s, Total time:    1490.00 s
       Max CFL number:  0.00E+00 at (  0,  0,  0)
       Max divergence:  0.14E-16 at (  1,  1,  3)
       Min divergence: -0.28E-16 at (  1,  2,  1)
       Max VN  number:  0.00E+00 at (  0,  0,  0)
 
       Time Step   15000   June 29, 2018  15:47:32
       Pressure Iterations:      1
       Maximum Velocity Error:  0.13E-12 on Mesh   1 at (   2   2   0)
       ---------------------------------------------------------------
       CPU/step:     0.168E-03 s, Total CPU:        2.72 s
       Time step:    0.100E+00 s, Total time:    1500.00 s
       Max CFL number:  0.00E+00 at (  0,  0,  0)
       Max divergence:  0.14E-16 at (  1,  1,  3)
       Min divergence: -0.28E-16 at (  1,  2,  1)
       Max VN  number:  0.00E+00 at (  0,  0,  0)
 
       Time Step   15001   June 29, 2018  15:47:32
       Pressure Iterations:      1
       Maximum Velocity Error:  0.13E-12 on Mesh   1 at (   2   2   0)
       ---------------------------------------------------------------
       CPU/step:     0.501E-03 s, Total CPU:        2.72 s
       Time step:    0.100E+00 s, Total time:    1500.10 s
       Max CFL number:  0.00E+00 at (  0,  0,  0)
       Max divergence:  0.14E-16 at (  1,  1,  3)
       Min divergence: -0.28E-16 at (  1,  2,  1)
       Max VN  number:  0.00E+00 at (  0,  0,  0)
 


 DEVICE Activation Times



 CPU Time Usage, Mesh   1

                 CPU (s)        %  
       ----------------------------
       MAIN         3.37     100.00
       DIVG         0.01       0.41
       MASS         0.00       0.00
       VELO         0.00       0.00
       PRES         0.09       2.79
       WALL         0.55      16.37
       DUMP         0.19       5.60
       PART         0.00       0.00
       RADI         1.82      54.00
       FIRE         0.00       0.00
       COMM         0.05       1.51
       SubTot       2.72      80.67


 Time Stepping Wall Clock Time (s):        3.280
 Total Elapsed Wall Clock Time (s):        3.381

STOP: FDS completed successfully (CHID: E_GlassOldConstWide100KW_s0)
