&HEAD	CHID='E_GlassOldConstWide100KW_s0', TITLE='FDS Analysis for Optimizing on Cone Calorimeter Data' /
&TIME	T_end=1500.0	DT=0.10	WALL_INCREMENT=1.0 /
&MESH	IJK=3,3,3	XB=-0.1524,0.1524,-0.1524,0.1524,0.0000,0.3048 /
&MISC	SOLID_PHASE_ONLY=.TRUE., Y_O2_INFTY=0.21, TMPA=25 /
&DUMP	DT_DEVC=1 DT_HRR=1 /
&SPEC	ID='OFF_GAS' /
&VENT	XB=-0.0508,0.0508,-0.0508,0.0508,0.0,0.0, SURF_ID='AR' /
&SURF     ID='AR',COLOR='RED',STRETCH_FACTOR=1.,CELL_SIZE_FACTOR=1.,HEAT_TRANSFER_COEFFICIENT=15.00
		MATL_ID(1,1:1)='PHASE_0'
		MATL_MASS_FRACTION(1,1:1)=1.0000
		EXTERNAL_FLUX=100.000000
		THICKNESS=0.008000
		BACKING=INSULATED,TMP_BACK=25.00,TMP_INNER=25.00 /
&MATL	ID='PHASE_0'
		EMISSIVITY=1.000000e+00
		ABSORPTION_COEFFICIENT=2.500180e+03
		DENSITY=1683.000000
		CONDUCTIVITY_RAMP='KRAMP_PHASE_0'
		SPECIFIC_HEAT_RAMP='CPRAMP_PHASE_0'
		N_REACTIONS=1
		A=1.650000e+12
		E=1.300000e+05
		N_S=2.297000
		N_O2=0.000000e+00
		HEAT_OF_REACTION=1.780662e+02
		NU_SPEC=0.266191
		SPEC_ID='OFF_GAS'
		NU_MATL=0.733809
		MATL_ID='PHASE_1'
/
&RAMP	ID='KRAMP_PHASE_0',T=   0,F=9.350000e-01/
&RAMP	ID='KRAMP_PHASE_0',T=  10,F=9.350000e-01/
&RAMP	ID='KRAMP_PHASE_0',T=  20,F=9.350000e-01/
&RAMP	ID='KRAMP_PHASE_0',T=  30,F=9.350000e-01/
&RAMP	ID='KRAMP_PHASE_0',T=  40,F=9.350000e-01/
&RAMP	ID='KRAMP_PHASE_0',T=  50,F=9.350000e-01/
&RAMP	ID='KRAMP_PHASE_0',T=  60,F=9.350000e-01/
&RAMP	ID='KRAMP_PHASE_0',T=  70,F=9.350000e-01/
&RAMP	ID='KRAMP_PHASE_0',T=  80,F=9.350000e-01/
&RAMP	ID='KRAMP_PHASE_0',T=  90,F=9.350000e-01/
&RAMP	ID='KRAMP_PHASE_0',T= 100,F=9.350000e-01/
&RAMP	ID='KRAMP_PHASE_0',T= 110,F=9.350000e-01/
&RAMP	ID='KRAMP_PHASE_0',T= 120,F=9.350000e-01/
&RAMP	ID='KRAMP_PHASE_0',T= 130,F=9.350000e-01/
&RAMP	ID='KRAMP_PHASE_0',T= 140,F=9.350000e-01/
&RAMP	ID='KRAMP_PHASE_0',T= 150,F=9.350000e-01/
&RAMP	ID='KRAMP_PHASE_0',T= 160,F=9.350000e-01/
&RAMP	ID='KRAMP_PHASE_0',T= 170,F=9.350000e-01/
&RAMP	ID='KRAMP_PHASE_0',T= 180,F=9.350000e-01/
&RAMP	ID='KRAMP_PHASE_0',T= 190,F=9.350000e-01/
! ... 181 like lines cut
&RAMP	ID='CPRAMP_PHASE_0',T=   0,F=5.276660e+00/
&RAMP	ID='CPRAMP_PHASE_0',T=  10,F=5.276660e+00/
&RAMP	ID='CPRAMP_PHASE_0',T=  20,F=5.276660e+00/
&RAMP	ID='CPRAMP_PHASE_0',T=  30,F=5.276660e+00/
&RAMP	ID='CPRAMP_PHASE_0',T=  40,F=5.276660e+00/
&RAMP	ID='CPRAMP_PHASE_0',T=  50,F=5.276660e+00/
&RAMP	ID='CPRAMP_PHASE_0',T=  60,F=5.276660e+00/
&RAMP	ID='CPRAMP_PHASE_0',T=  70,F=5.276660e+00/
&RAMP	ID='CPRAMP_PHASE_0',T=  80,F=5.276660e+00/
&RAMP	ID='CPRAMP_PHASE_0',T=  90,F=5.276660e+00/
&RAMP	ID='CPRAMP_PHASE_0',T= 100,F=5.276660e+00/
&RAMP	ID='CPRAMP_PHASE_0',T= 110,F=5.276660e+00/
&RAMP	ID='CPRAMP_PHASE_0',T= 120,F=5.276660e+00/
&RAMP	ID='CPRAMP_PHASE_0',T= 130,F=5.276660e+00/
&RAMP	ID='CPRAMP_PHASE_0',T= 140,F=5.276660e+00/
&RAMP	ID='CPRAMP_PHASE_0',T= 150,F=5.276660e+00/
&RAMP	ID='CPRAMP_PHASE_0',T= 160,F=5.276660e+00/
&RAMP	ID='CPRAMP_PHASE_0',T= 170,F=5.276660e+00/
&RAMP	ID='CPRAMP_PHASE_0',T= 180,F=5.276660e+00/
&RAMP	ID='CPRAMP_PHASE_0',T= 190,F=5.276660e+00/
! ... 181 like lines cut
&MATL	ID='PHASE_1'
		EMISSIVITY=9.400000e-01
		ABSORPTION_COEFFICIENT=1.000000e+08
		DENSITY=1235.000000
		CONDUCTIVITY_RAMP='KRAMP_PHASE_1'
		SPECIFIC_HEAT_RAMP='CPRAMP_PHASE_1'
/
&RAMP	ID='KRAMP_PHASE_1',T=   0,F=1.460000e-01/
&RAMP	ID='KRAMP_PHASE_1',T=  10,F=1.460000e-01/
&RAMP	ID='KRAMP_PHASE_1',T=  20,F=1.460000e-01/
&RAMP	ID='KRAMP_PHASE_1',T=  30,F=1.460000e-01/
&RAMP	ID='KRAMP_PHASE_1',T=  40,F=1.460000e-01/
&RAMP	ID='KRAMP_PHASE_1',T=  50,F=1.460000e-01/
&RAMP	ID='KRAMP_PHASE_1',T=  60,F=1.460000e-01/
&RAMP	ID='KRAMP_PHASE_1',T=  70,F=1.460000e-01/
&RAMP	ID='KRAMP_PHASE_1',T=  80,F=1.460000e-01/
&RAMP	ID='KRAMP_PHASE_1',T=  90,F=1.460000e-01/
&RAMP	ID='KRAMP_PHASE_1',T= 100,F=1.460000e-01/
&RAMP	ID='KRAMP_PHASE_1',T= 110,F=1.460000e-01/
&RAMP	ID='KRAMP_PHASE_1',T= 120,F=1.460000e-01/
&RAMP	ID='KRAMP_PHASE_1',T= 130,F=1.460000e-01/
&RAMP	ID='KRAMP_PHASE_1',T= 140,F=1.460000e-01/
&RAMP	ID='KRAMP_PHASE_1',T= 150,F=1.460000e-01/
&RAMP	ID='KRAMP_PHASE_1',T= 160,F=1.460000e-01/
&RAMP	ID='KRAMP_PHASE_1',T= 170,F=1.460000e-01/
&RAMP	ID='KRAMP_PHASE_1',T= 180,F=1.460000e-01/
&RAMP	ID='KRAMP_PHASE_1',T= 190,F=1.460000e-01/
! ... 181 like lines cut
&RAMP	ID='CPRAMP_PHASE_1',T=   0,F=4.055800e-01/
&RAMP	ID='CPRAMP_PHASE_1',T=  10,F=4.055800e-01/
&RAMP	ID='CPRAMP_PHASE_1',T=  20,F=4.055800e-01/
&RAMP	ID='CPRAMP_PHASE_1',T=  30,F=4.055800e-01/
&RAMP	ID='CPRAMP_PHASE_1',T=  40,F=4.055800e-01/
&RAMP	ID='CPRAMP_PHASE_1',T=  50,F=4.055800e-01/
&RAMP	ID='CPRAMP_PHASE_1',T=  60,F=4.055800e-01/
&RAMP	ID='CPRAMP_PHASE_1',T=  70,F=4.055800e-01/
&RAMP	ID='CPRAMP_PHASE_1',T=  80,F=4.055800e-01/
&RAMP	ID='CPRAMP_PHASE_1',T=  90,F=4.055800e-01/
&RAMP	ID='CPRAMP_PHASE_1',T= 100,F=4.055800e-01/
&RAMP	ID='CPRAMP_PHASE_1',T= 110,F=4.055800e-01/
&RAMP	ID='CPRAMP_PHASE_1',T= 120,F=4.055800e-01/
&RAMP	ID='CPRAMP_PHASE_1',T= 130,F=4.055800e-01/
&RAMP	ID='CPRAMP_PHASE_1',T= 140,F=4.055800e-01/
&RAMP	ID='CPRAMP_PHASE_1',T= 150,F=4.055800e-01/
&RAMP	ID='CPRAMP_PHASE_1',T= 160,F=4.055800e-01/
&RAMP	ID='CPRAMP_PHASE_1',T= 170,F=4.055800e-01/
&RAMP	ID='CPRAMP_PHASE_1',T= 180,F=4.055800e-01/
&RAMP	ID='CPRAMP_PHASE_1',T= 190,F=4.055800e-01/
! ... 181 like lines cut
&DEVC XYZ = 0.0,0.0,0.0, IOR=3, QUANTITY = 'WALL THICKNESS', ID='Wall thickness' /
&DEVC XYZ = 0.0,0.0,0.0, IOR=3, QUANTITY = 'WALL TEMPERATURE', ID='Wall_temperature' /
&DEVC XYZ = 0.0,0.0,0.0, IOR=3, QUANTITY = 'BACK WALL TEMPERATURE', ID='Back_wall_temperature' /
&TAIL	/
